
     RDKit          3D

 13 14  0  0  0  0  0  0  0  0999 V2000
  -26.1480   11.1019   22.0333 C   0  0  0  0  0  0  0  0  0  0  0  0
  -25.6047   12.4519   21.9068 N   0  0  0  0  0  0  0  0  0  0  0  0
  -22.7444   14.0139   26.0697 C   0  0  0  0  0  0  0  0  0  0  0  0
  -21.6971   13.3128   25.3057 C   0  0  0  0  0  0  0  0  0  0  0  0
  -21.7901   12.5080   24.1113 C   0  0  0  0  0  0  0  0  0  0  0  0
  -20.5254   11.9492   23.7334 C   0  0  0  0  0  0  0  0  0  0  0  0
  -19.5016   12.3525   24.5509 C   0  0  0  0  0  0  0  0  0  0  0  0
  -20.0721   13.3228   25.8830 S   0  0  0  0  0  0  0  0  0  0  0  0
  -20.3863   11.0783   22.6682 O   0  0  0  0  0  0  0  0  0  0  0  0
  -21.6692   10.5304   22.2644 C   0  0  0  0  0  0  0  0  0  0  0  0
  -22.7213   11.5803   22.1601 C   0  0  0  0  0  0  0  0  0  0  0  0
  -22.9693   12.2557   23.4202 O   0  0  0  0  0  0  0  0  0  0  0  0
  -22.4787   14.5632   27.1536 O   0  0  0  0  0  0  0  0  0  0  0  0
  1  2  1  0
  2  3  1  0
  3  4  1  0
  4  5  2  0
  5  6  1  0
  6  7  2  0
  7  8  1  0
  4  8  1  0
  6  9  1  0
  9 10  1  0
 10 11  1  0
  5 12  1  0
 11 12  1  0
  3 13  2  0
M  END
$$$$
