
     RDKit          3D

 18 20  0  0  0  0  0  0  0  0999 V2000
   24.9489    6.8301   59.1147 N   0  0  0  0  0  0  0  0  0  0  0  0
   26.9869    4.3686   57.6417 C   0  0  0  0  0  0  0  0  0  0  0  0
   26.7462    0.8826   61.5231 C   0  0  0  0  0  0  0  0  0  0  0  0
   27.6779    3.8628   56.7106 N   0  0  0  0  0  0  0  0  0  0  0  0
   25.5013    0.2999   61.3218 C   0  0  0  0  0  0  0  0  0  0  0  0
   25.8521    4.5836   59.6357 C   0  0  0  0  0  0  0  0  0  0  0  0
   27.1073    2.5246   59.4918 C   0  0  0  0  0  0  0  0  0  0  0  0
   26.6865    3.7288   58.9287 C   0  0  0  0  0  0  0  0  0  0  0  0
   27.2553    0.9973   62.8291 N   0  0  0  0  0  0  0  0  0  0  0  0
   26.6667    2.1981   60.7710 C   0  0  0  0  0  0  0  0  0  0  0  0
   25.8156    3.0487   61.4726 C   0  0  0  0  0  0  0  0  0  0  0  0
   25.3991    4.2445   60.9135 C   0  0  0  0  0  0  0  0  0  0  0  0
   26.3326    5.6215   57.6645 N   0  0  0  0  0  0  0  0  0  0  0  0
   25.6573    5.7607   58.8101 C   0  0  0  0  0  0  0  0  0  0  0  0
   24.9971    0.1511   60.0401 C   0  0  0  0  0  0  0  0  0  0  0  0
   25.7102    0.6107   58.9564 C   0  0  0  0  0  0  0  0  0  0  0  0
   26.9226    1.2328   59.1501 C   0  0  0  0  0  0  0  0  0  0  0  0
   27.4574    1.3535   60.4249 C   0  0  0  0  0  0  0  0  0  0  0  0
  2  4  2  0
  3  5  2  0
  7  8  2  0
  6  8  1  0
  2  8  1  0
  4  9  1  0
  3  9  1  0
  7 10  1  0
 10 11  2  0
  6 12  2  0
 11 12  1  0
  2 13  1  0
 13 14  1  0
  1 14  2  0
  6 14  1  0
  5 15  1  0
 15 16  2  0
 16 17  1  0
 17 18  2  0
  3 18  1  0
M  END
$$$$
