
     RDKit          3D

 29 31  0  0  0  0  0  0  0  0999 V2000
    8.6720    3.0366   17.3343 C   0  0  0  0  0  0  0  0  0  0  0  0
    8.1270    3.5891   16.5177 C   0  0  0  0  0  0  0  0  0  0  0  0
    9.2610    2.9638    9.9591 C   0  0  0  0  0  0  0  0  0  0  0  0
    8.1812    3.9049    8.0640 C   0  0  0  0  0  0  0  0  0  0  0  0
    7.1226    4.2957    8.8709 C   0  0  0  0  0  0  0  0  0  0  0  0
    7.1045    4.0137   10.2278 C   0  0  0  0  0  0  0  0  0  0  0  0
    5.8435    1.8194   10.3219 C   0  0  0  0  0  0  0  0  0  0  0  0
    9.0859    2.8693   17.2076 C   0  0  0  0  0  0  0  0  0  0  0  0
    7.4004    2.5772   17.3899 C   0  0  0  0  0  0  0  0  0  0  0  0
    8.2098    3.3426   10.7645 C   0  0  0  0  0  0  0  0  0  0  0  0
    9.2674    3.2354    8.5896 C   0  0  0  0  0  0  0  0  0  0  0  0
   10.4363    2.8200    7.7114 C   0  0  0  0  0  0  0  0  0  0  0  0
    6.3119    0.3980   15.2632 C   0  0  0  0  0  0  0  0  0  0  0  0
    7.2222    1.4583   15.9261 C   0  0  0  0  0  0  0  0  0  0  0  0
    8.4385    1.9757   16.5158 C   0  0  0  0  0  0  0  0  0  0  0  0
    8.7803    3.3126   14.6732 C   0  0  0  0  0  0  0  0  0  0  0  0
    8.9541    4.2998   16.7381 C   0  0  0  0  0  0  0  0  0  0  0  0
    6.8903    2.8193   10.8612 C   0  0  1  0  0  0  0  0  0  0  0  0
    7.2173    3.1979    9.3771 C   0  0  0  0  0  0  0  0  0  0  0  0
    6.9935    2.9503   11.5228 C   0  0  0  0  0  0  0  0  0  0  0  0
    8.4866    2.1175   15.1742 N   0  0  0  0  0  0  0  0  0  0  0  0
    8.8370    3.4035   13.3199 N   0  0  0  0  0  0  0  0  0  0  0  0
    9.0005    4.4094   15.3972 N   0  0  0  0  0  0  0  0  0  0  0  0
    9.1764    5.3883   17.4630 N   0  0  0  0  0  0  0  0  0  0  0  0
    6.2366    2.1841    8.9163 N   0  0  0  0  0  0  0  0  0  0  0  0
    8.4188    3.5643   18.2958 O   0  0  0  0  0  0  0  0  0  0  0  0
    8.1831    3.0448   12.1176 O   0  0  0  0  0  0  0  0  0  0  0  0
    7.1147    2.4291   12.6447 O   0  0  0  0  0  0  0  0  0  0  0  0
    7.2807    4.1551   11.2322 O   0  0  0  0  0  0  0  0  0  0  0  0
  4  5  2  0
  5  6  1  0
  2  8  1  0
  2  9  1  0
  3 10  1  0
  6 10  2  0
  3 11  2  0
  4 11  1  0
 11 12  1  0
 13 14  1  0
 14 15  1  0
  1 15  1  0
  1 17  2  0
  7 18  1  0
 18 19  1  0
 18 20  1  1
 15 21  2  0
 16 21  1  0
 16 22  1  0
 16 23  2  0
 17 23  1  0
 17 24  1  0
  6 25  1  0
  7 25  1  0
 19 25  1  0
  1 26  1  0
  8 26  1  0
  9 27  1  0
 10 27  1  0
 20 28  2  0
 20 29  1  0
M  END
$$$$
