
     RDKit          3D

 32 35  0  0  0  0  0  0  0  0999 V2000
   28.8045  108.3435   57.0301 C   0  0  0  0  0  0  0  0  0  0  0  0
   30.4634  108.3921   55.1493 C   0  0  0  0  0  0  0  0  0  0  0  0
   31.6625  107.9673   54.7261 C   0  0  0  0  0  0  0  0  0  0  0  0
   27.8720  108.2672   57.4765 C   0  0  0  0  0  0  0  0  0  0  0  0
   35.5829  111.2518   57.0987 C   0  0  0  0  0  0  0  0  0  0  0  0
   37.9417  108.6548   59.0020 C   0  0  0  0  0  0  0  0  0  0  0  0
   38.5476  110.9701   58.3336 C   0  0  0  0  0  0  0  0  0  0  0  0
   27.4361  108.5973   56.1977 C   0  0  0  0  0  0  0  0  0  0  0  0
   28.2076  109.2973   58.3477 C   0  0  0  0  0  0  0  0  0  0  0  0
   38.5928  106.8980   57.6065 C   0  0  0  0  0  0  0  0  0  0  0  0
   35.0050  109.1332   60.0037 C   0  0  0  0  0  0  0  0  0  0  0  0
   35.3138  109.2425   58.6419 C   0  0  0  0  0  0  0  0  0  0  0  0
   30.7114  107.2065   57.2358 C   0  0  0  0  0  0  0  0  0  0  0  0
   30.0452  106.9934   58.3677 N   0  0  0  0  0  0  0  0  0  0  0  0
   35.3405  108.1192   57.5607 C   0  0  0  0  0  0  0  0  0  0  0  0
   29.9783  108.0237   56.3842 N   0  0  0  0  0  0  0  0  0  0  0  0
   36.4204  109.4188   58.2317 C   0  0  0  0  0  0  0  0  0  0  0  0
   28.8486  107.6922   58.2338 C   0  0  0  0  0  0  0  0  0  0  0  0
   31.9827  106.7475   56.8164 C   0  0  0  0  0  0  0  0  0  0  0  0
   35.3097  110.5687   58.3574 N   0  0  0  0  0  0  0  0  0  0  0  0
   35.0125  111.3247   59.4558 N   0  0  0  0  0  0  0  0  0  0  0  0
   34.8216  110.4565   60.4324 C   0  0  0  0  0  0  0  0  0  0  0  0
   32.4553  107.1065   55.5820 C   0  0  0  0  0  0  0  0  0  0  0  0
   34.1675  107.4402   57.3532 N   0  0  0  0  0  0  0  0  0  0  0  0
   37.6272  109.8467   58.2131 N   0  0  0  0  0  0  0  0  0  0  0  0
   36.3916  107.8126   57.0060 O   0  0  0  0  0  0  0  0  0  0  0  0
   36.6748  108.2174   58.1922 O   0  0  0  0  0  0  0  0  0  0  0  0
   40.0290  106.7272   58.0270 N   0  0  0  0  0  0  0  0  0  0  0  0
   40.9304  107.8570   57.7750 C   0  0  0  0  0  0  0  0  0  0  0  0
   28.1920  110.6135   57.9210 C   0  0  0  0  0  0  0  0  0  0  0  0
   27.4184  109.9179   55.7787 C   0  0  0  0  0  0  0  0  0  0  0  0
   27.7934  110.9254   56.6424 C   0  0  0  0  0  0  0  0  0  0  0  0
  2  3  2  0
  4  8  1  0
  4  9  2  0
  6 10  1  0
 11 12  2  0
 13 14  2  0
 12 15  1  0
 13 16  1  0
  1 16  1  0
  2 16  1  0
 11 17  1  0
 14 18  1  0
  1 18  2  0
  4 18  1  0
 13 19  1  0
 12 20  1  0
  5 20  1  0
 20 21  1  0
 11 22  1  0
 21 22  2  0
 19 23  2  0
  3 23  1  0
 15 24  1  0
 23 24  1  0
 17 25  1  0
  7 25  1  0
  6 25  1  0
 15 26  2  0
 17 27  2  0
 10 28  1  0
 28 29  1  0
  9 30  1  0
  8 31  2  0
 30 32  2  0
 31 32  1  0
M  END
$$$$
