
     RDKit          3D

 10 10  0  0  0  0  0  0  0  0999 V2000
  -14.3608  -51.8527   -7.5084 O   0  0  0  0  0  0  0  0  0  0  0  0
  -13.6638  -52.3734   -6.5901 C   0  0  0  0  0  0  0  0  0  0  0  0
  -14.1993  -52.9657   -5.6059 O   0  0  0  0  0  0  0  0  0  0  0  0
  -12.1550  -52.2556   -6.6671 C   0  0  0  0  0  0  0  0  0  0  0  0
  -12.9730  -52.3335   -6.0248 C   0  0  0  0  0  0  0  0  0  0  0  0
  -12.0489  -52.9522   -7.0662 C   0  0  0  0  0  0  0  0  0  0  0  0
  -11.4705  -52.3320   -8.1431 C   0  0  0  0  0  0  0  0  0  0  0  0
  -10.7368  -53.2613   -8.7612 N   0  0  0  0  0  0  0  0  0  0  0  0
  -10.8535  -54.4130   -8.1143 C   0  0  0  0  0  0  0  0  0  0  0  0
  -11.6435  -54.2161   -7.0773 N   0  0  0  0  0  0  0  0  0  0  0  0
  1  2  2  0
  2  3  1  0
  2  4  1  0
  4  5  1  0
  5  6  1  0
  6  7  2  0
  7  8  1  0
  8  9  2  0
  9 10  1  0
  6 10  1  0
M  END
$$$$
