
     RDKit          3D

 31 34  0  0  0  0  0  0  0  0999 V2000
    1.8078  -14.2136   87.3742 C   0  0  0  0  0  0  0  0  0  0  0  0
    3.1811  -11.7563   86.6474 C   0  0  0  0  0  0  0  0  0  0  0  0
    2.2923  -11.5563   87.7194 C   0  0  0  0  0  0  0  0  0  0  0  0
    3.3898  -12.5892   88.2924 C   0  0  0  0  0  0  0  0  0  0  0  0
    2.4754  -13.6606   88.4868 C   0  0  0  0  0  0  0  0  0  0  0  0
    2.8768  -12.7235   85.6705 C   0  0  0  0  0  0  0  0  0  0  0  0
    1.6633  -13.4408   85.8153 C   0  0  0  0  0  0  0  0  0  0  0  0
    1.2351  -10.8665   89.5961 N   0  0  0  0  0  0  0  0  0  0  0  0
    0.7628  -13.2351   86.8540 C   0  0  0  0  0  0  0  0  0  0  0  0
    1.0648  -12.3105   87.8642 C   0  0  0  0  0  0  0  0  0  0  0  0
    1.4144  -14.2781   85.0855 F   0  0  0  0  0  0  0  0  0  0  0  0
    2.0613  -13.6907   86.1014 C   0  0  0  0  0  0  0  0  0  0  0  0
    2.9396  -12.6503   85.8697 C   0  0  0  0  0  0  0  0  0  0  0  0
    3.5987  -12.0742   86.9291 C   0  0  0  0  0  0  0  0  0  0  0  0
    0.4296  -11.8608   89.0072 N   0  0  0  0  0  0  0  0  0  0  0  0
    2.3737  -10.6437   88.9004 C   0  0  0  0  0  0  0  0  0  0  0  0
    4.9625  -12.3024   85.7252 C   0  0  0  0  0  0  0  0  0  0  0  0
    4.0418  -11.1969   85.3831 N   0  0  0  0  0  0  0  0  0  0  0  0
    2.8490  -11.6609   84.6179 C   0  0  0  0  0  0  0  0  0  0  0  0
    3.5323  -10.5635   86.6252 C   0  0  0  0  0  0  0  0  0  0  0  0
    4.4755  -11.0393   86.8122 O   0  0  0  0  0  0  0  0  0  0  0  0
    3.0842   -9.4507   87.4498 C   0  0  0  0  0  0  0  0  0  0  0  0
    1.7712  -10.7028   89.8797 C   0  0  0  0  0  0  0  0  0  0  0  0
    2.0605  -11.3544   91.2216 C   0  0  0  0  0  0  0  0  0  0  0  0
    1.9978  -12.7873   91.6763 C   0  0  0  0  0  0  0  0  0  0  0  0
    1.7186  -14.0743   90.9343 C   0  0  0  0  0  0  0  0  0  0  0  0
    2.3274  -12.8513   92.9630 N   0  0  0  0  0  0  0  0  0  0  0  0
    2.5729  -11.5161   93.4153 N   0  0  0  0  0  0  0  0  0  0  0  0
    2.8788  -11.4033   94.8509 C   0  0  0  0  0  0  0  0  0  0  0  0
    2.4386  -10.6004   92.4560 C   0  0  0  0  0  0  0  0  0  0  0  0
    2.7064   -9.1165   92.6361 C   0  0  0  0  0  0  0  0  0  0  0  0
  2  3  1  0
  1  5  2  0
  4  5  1  0
  4  6  1  0
  2  6  2  0
  6  7  1  0
  7  9  2  0
  3 10  1  0
  9 10  1  0
 11 12  1  0
  1 12  1  0
 12 13  2  0
 13 14  1  0
  4 14  2  0
 10 15  2  0
  8 15  1  0
  3 16  2  0
  8 16  1  0
 16 17  1  0
 17 18  1  0
 18 19  1  0
 18 20  1  0
 14 21  1  0
 21 22  1  0
 22 23  1  0
 23 24  1  0
 24 25  1  0
 25 26  1  0
 25 27  2  0
 27 28  1  0
 28 29  1  0
 24 30  2  0
 28 30  1  0
 30 31  1  0
M  END
$$$$
