
     RDKit          3D

 40 42  0  0  0  0  0  0  0  0999 V2000
   87.8671    6.7401   29.2187 C   0  0  1  0  0  0  0  0  0  0  0  0
   87.9604    5.5786   28.2409 C   0  0  1  0  0  0  0  0  0  0  0  0
   88.9620    4.5875   28.7229 C   0  0  2  0  0  0  0  0  0  0  0  0
   90.3179    5.2076   28.8582 C   0  0  1  0  0  0  0  0  0  0  0  0
   90.2533    6.4119   29.7973 C   0  0  1  0  0  0  0  0  0  0  0  0
   91.3514    6.3054   29.4410 C   0  0  0  0  0  0  0  0  0  0  0  0
   91.2405    4.2792   29.4394 O   0  0  0  0  0  0  0  0  0  0  0  0
   87.3896    6.2273   30.4124 O   0  0  0  0  0  0  0  0  0  0  0  0
   89.2146    7.3561   29.3760 O   0  0  0  0  0  0  0  0  0  0  0  0
   90.7151    5.0060   29.5648 N   0  0  0  0  0  0  0  0  0  0  0  0
   94.1864    4.8882   28.9469 C   0  0  2  0  0  0  0  0  0  0  0  0
   95.2530    5.7580   28.4354 N   0  0  0  0  0  0  0  0  0  0  0  0
   93.0339    4.9530   27.9428 C   0  0  0  0  0  0  0  0  0  0  0  0
   91.8432    4.1150   28.4425 C   0  0  2  0  0  0  0  0  0  0  0  0
   90.7405    4.1762   27.4786 N   0  0  0  0  0  0  0  0  0  0  0  0
   91.3844    4.5739   29.8296 C   0  0  1  0  0  0  0  0  0  0  0  0
   92.5585    4.4725   30.8157 C   0  0  2  0  0  0  0  0  0  0  0  0
   92.2213    4.9353   32.1024 O   0  0  0  0  0  0  0  0  0  0  0  0
   93.7618    5.3191   30.3575 C   0  0  2  0  0  0  0  0  0  0  0  0
   92.7038    9.6607   28.5334 O   0  0  0  0  0  0  0  0  0  0  0  0
   92.8611   10.4773   29.6334 C   0  0  2  0  0  0  0  0  0  0  0  0
   94.3385   10.7095   29.8887 C   0  0  2  0  0  0  0  0  0  0  0  0
   94.9450   11.2301   28.6893 O   0  0  0  0  0  0  0  0  0  0  0  0
   95.0273    9.4482   30.3103 C   0  0  1  0  0  0  0  0  0  0  0  0
   96.4803    9.7328   30.5567 N   0  0  0  0  0  0  0  0  0  0  0  0
   94.3795    8.8967   31.5556 C   0  0  2  0  0  0  0  0  0  0  0  0
   95.0098    7.6695   31.9465 O   0  0  0  0  0  0  0  0  0  0  0  0
   92.9008    8.6329   31.2943 C   0  0  1  0  0  0  0  0  0  0  0  0
   92.2065    9.8511   30.8355 O   0  0  0  0  0  0  0  0  0  0  0  0
   93.6131    8.5723   31.1291 C   0  0  0  0  0  0  0  0  0  0  0  0
   93.1714    7.2522   30.9258 O   0  0  0  0  0  0  0  0  0  0  0  0
   86.6656    4.9699   28.1527 O   0  0  0  0  0  0  0  0  0  0  0  0
   89.0094    3.5125   27.7608 O   0  0  0  0  0  0  0  0  0  0  0  0
   98.4510   11.0898   28.8019 N   0  0  0  0  0  0  0  0  0  0  0  0
   96.9531    6.7167   29.1256 C   0  0  0  0  0  0  0  0  0  0  0  0
   96.9965    6.4369   30.2786 O   0  0  0  0  0  0  0  0  0  0  0  0
   97.1073    6.8911   29.1038 C   0  0  1  0  0  0  0  0  0  0  0  0
   96.8731    7.5910   27.7380 C   0  0  0  0  0  0  0  0  0  0  0  0
   97.7290   10.1322   27.9059 C   0  0  0  0  0  0  0  0  0  0  0  0
   96.7425    7.7460   30.1205 O   0  0  0  0  0  0  0  0  0  0  0  0
  1  2  1  0
  2  3  1  0
  3  4  1  0
  4  5  1  0
  5  6  1  6
  4  7  1  1
  1  8  1  1
  5  9  1  0
  1  9  1  0
  6 10  1  0
 11 12  1  6
 11 13  1  0
 13 14  1  0
 14 15  1  6
 14 16  1  0
 16  8  1  1
 16 17  1  0
 17 18  1  1
 11 19  1  0
 17 19  1  0
 19 20  1  1
 21 20  1  6
 21 22  1  0
 22 23  1  6
 22 24  1  0
 24 25  1  1
 24 26  1  0
 26 27  1  6
 26 28  1  0
 21 29  1  0
 28 29  1  0
 28 30  1  1
 30 31  1  0
  2 32  1  1
  3 33  1  6
 12 35  1  0
 35 36  2  0
 35 37  1  0
 37 38  1  0
 38 39  1  0
 34 39  1  0
 37 40  1  6
M  END
$$$$
