
     RDKit          3D

 28 30  0  0  0  0  0  0  0  0999 V2000
    2.8723   -8.5712   30.5573 P   0  0  2  0  0  0  0  0  0  0  0  0
    1.7157   -7.8636   29.8971 O   0  0  0  0  0  0  0  0  0  0  0  0
    3.1581   -7.8891   31.8853 O   0  0  0  0  0  0  0  0  0  0  0  0
    4.1208   -8.7093   29.7004 O   0  0  0  0  0  0  0  0  0  0  0  0
    2.4458  -10.0886   30.9749 O   0  0  0  0  0  0  0  0  0  0  0  0
    4.0098   -9.2926   28.6046 P   0  0  1  0  0  0  0  0  0  0  0  0
    4.8381   -9.4381   27.3536 O   0  0  0  0  0  0  0  0  0  0  0  0
    4.5345   -8.3398   29.6447 O   0  0  0  0  0  0  0  0  0  0  0  0
    3.8428  -10.7781   29.2417 O   0  0  0  0  0  0  0  0  0  0  0  0
    0.1593  -11.9302   25.6148 C   0  0  0  0  0  0  0  0  0  0  0  0
    1.5762  -12.3695   25.4277 C   0  0  1  0  0  0  0  0  0  0  0  0
    2.0487  -11.9832   24.2695 O   0  0  0  0  0  0  0  0  0  0  0  0
    2.5712  -11.7035   26.5798 C   0  0  1  0  0  0  0  0  0  0  0  0
    3.5351  -12.7901   26.8671 O   0  0  0  0  0  0  0  0  0  0  0  0
    3.1018  -10.7294   26.0077 C   0  0  1  0  0  0  0  0  0  0  0  0
    4.4512  -10.4013   26.5331 O   0  0  0  0  0  0  0  0  0  0  0  0
    3.3287  -11.2116   24.4873 C   0  0  2  0  0  0  0  0  0  0  0  0
    1.6647  -12.9157   21.6112 N   0  0  0  0  0  0  0  0  0  0  0  0
    1.9764  -13.8483   20.6858 C   0  0  0  0  0  0  0  0  0  0  0  0
    3.3145  -13.9567   20.6012 N   0  0  0  0  0  0  0  0  0  0  0  0
    3.8475  -13.1104   21.4643 C   0  0  0  0  0  0  0  0  0  0  0  0
    5.3095  -12.7899   21.8163 C   0  0  0  0  0  0  0  0  0  0  0  0
    6.2373  -13.3260   21.3035 O   0  0  0  0  0  0  0  0  0  0  0  0
    5.5900  -11.8083   22.8004 N   0  0  0  0  0  0  0  0  0  0  0  0
    4.5031  -11.1432   23.4530 C   0  0  0  0  0  0  0  0  0  0  0  0
    4.8024  -10.1708   24.4622 N   0  0  0  0  0  0  0  0  0  0  0  0
    3.1273  -11.4545   23.1317 N   0  0  0  0  0  0  0  0  0  0  0  0
    2.8162  -12.4647   22.1042 C   0  0  0  0  0  0  0  0  0  0  0  0
  1  2  2  0
  1  3  1  1
  1  4  1  0
  1  5  1  0
  5  6  1  0
  6  7  2  0
  6  8  1  1
  6  9  1  0
  9 10  1  0
 11 10  1  1
 11 12  1  0
 11 13  1  0
 13 14  1  6
 13 15  1  0
 15 16  1  1
 12 17  1  0
 15 17  1  0
 17 18  1  6
 18 19  1  0
 19 20  2  0
 20 21  1  0
 21 22  1  0
 22 23  2  0
 22 24  1  0
 24 25  1  0
 25 26  1  0
 25 27  2  0
 18 28  1  0
 21 28  2  0
 27 28  1  0
M  END
$$$$
