
     RDKit          3D

 21 22  0  0  0  0  0  0  0  0999 V2000
   -7.4470   30.3796   18.6133 C   0  0  0  0  0  0  0  0  0  0  0  0
   -6.3038   31.0852   18.6816 N   0  0  0  0  0  0  0  0  0  0  0  0
   -6.3350   32.3633   18.2405 C   0  0  0  0  0  0  0  0  0  0  0  0
   -5.2100   33.0781   18.3012 N   0  0  0  0  0  0  0  0  0  0  0  0
   -7.4220   32.9621   17.7275 N   0  0  0  0  0  0  0  0  0  0  0  0
   -8.5699   32.2531   17.6989 C   0  0  0  0  0  0  0  0  0  0  0  0
   -9.6546   32.8939   17.2133 N   0  0  0  0  0  0  0  0  0  0  0  0
   -8.6402   30.8979   18.1328 C   0  0  0  0  0  0  0  0  0  0  0  0
   -9.9560   30.1125   18.1421 C   0  0  0  0  0  0  0  0  0  0  0  0
   -8.5302   26.9316   19.1911 C   0  0  0  0  0  0  0  0  0  0  0  0
   -9.0825   27.5386   18.0651 C   0  0  0  0  0  0  0  0  0  0  0  0
   -8.7366   27.1221   16.7819 C   0  0  0  0  0  0  0  0  0  0  0  0
   -9.0660   28.3531   17.1011 O   0  0  0  0  0  0  0  0  0  0  0  0
   -8.2799   28.9518   18.1308 C   0  0  0  0  0  0  0  0  0  0  0  0
   -7.8046   26.0959   16.6031 C   0  0  0  0  0  0  0  0  0  0  0  0
   -5.2581   24.1208   18.1987 O   0  0  0  0  0  0  0  0  0  0  0  0
   -4.1666   24.5973   18.9685 C   0  0  0  0  0  0  0  0  0  0  0  0
   -7.2060   25.5350   17.7306 C   0  0  0  0  0  0  0  0  0  0  0  0
   -6.6571   24.2850   17.0143 O   0  0  0  0  0  0  0  0  0  0  0  0
   -5.4689   23.5101   17.1639 C   0  0  0  0  0  0  0  0  0  0  0  0
   -7.5638   25.9516   19.0091 C   0  0  0  0  0  0  0  0  0  0  0  0
  1  2  2  0
  2  3  1  0
  3  4  1  0
  3  5  2  0
  5  6  1  0
  6  7  1  0
  1  8  1  0
  6  8  2  0
  8  9  1  0
  9 10  1  0
 10 11  2  0
 11 12  1  0
 12 13  1  0
 13 14  1  0
 12 15  2  0
 15 16  1  0
 16 17  1  0
 15 18  1  0
 18 19  1  0
 19 20  1  0
 10 21  1  0
 18 21  2  0
M  END
$$$$
