
     RDKit          3D

 25 26  0  0  0  0  0  0  0  0999 V2000
   82.6079    7.9446   66.5989 N   0  0  0  0  0  0  0  0  0  0  0  0
   82.1934    9.5774   66.1421 C   0  0  0  0  0  0  0  0  0  0  0  0
   81.1373    8.5063   66.0379 C   0  0  0  0  0  0  0  0  0  0  0  0
   79.8068    8.8795   65.9039 C   0  0  0  0  0  0  0  0  0  0  0  0
   78.8450    7.9001   65.8089 C   0  0  0  0  0  0  0  0  0  0  0  0
   79.1691   10.1472   64.1608 N   0  0  0  0  0  0  0  0  0  0  0  0
   80.3699    9.9458   64.0907 O   0  0  0  0  0  0  0  0  0  0  0  0
   78.6589   11.2502   64.0141 O   0  0  0  0  0  0  0  0  0  0  0  0
   79.1427    6.5522   65.8391 C   0  0  0  0  0  0  0  0  0  0  0  0
   80.4706    6.1886   65.9625 C   0  0  0  0  0  0  0  0  0  0  0  0
   81.4569    7.1576   66.0648 C   0  0  0  0  0  0  0  0  0  0  0  0
   82.9106    7.0258   65.6815 C   0  0  0  0  0  0  0  0  0  0  0  0
   84.0707    6.7756   65.3658 O   0  0  0  0  0  0  0  0  0  0  0  0
   82.0192    6.2558   65.1474 C   0  0  0  0  0  0  0  0  0  0  0  0
   81.5712    5.0827   64.5371 C   0  0  0  0  0  0  0  0  0  0  0  0
   82.3021    4.4716   63.5371 C   0  0  0  0  0  0  0  0  0  0  0  0
   83.4858    5.0405   63.1649 C   0  0  0  0  0  0  0  0  0  0  0  0
   84.2089    4.4452   62.1853 F   0  0  0  0  0  0  0  0  0  0  0  0
   83.9759    6.2002   63.7149 C   0  0  0  0  0  0  0  0  0  0  0  0
   83.2190    6.8140   64.6960 C   0  0  0  0  0  0  0  0  0  0  0  0
   83.5715    8.0293   65.2306 O   0  0  0  0  0  0  0  0  0  0  0  0
   83.0053    7.1746   66.2408 C   0  0  0  0  0  0  0  0  0  0  0  0
   81.7830    7.7395   66.9176 C   0  0  0  0  0  0  0  0  0  0  0  0
   80.7557    6.9408   66.9087 O   0  0  0  0  0  0  0  0  0  0  0  0
   81.8202    8.8122   67.5096 O   0  0  0  0  0  0  0  0  0  0  0  0
  1  2  1  0
  2  3  1  0
  3  4  2  0
  4  5  1  0
  5  6  1  0
  6  7  2  0
  6  8  1  0
  5  9  2  0
  9 10  1  0
 10 11  2  0
  3 11  1  0
  1 12  1  0
 12 13  2  0
 12 14  1  0
 14 15  1  0
 15 16  2  0
 16 17  1  0
 17 18  1  0
 17 19  2  0
 14 20  2  0
 19 20  1  0
 20 21  1  0
 21 22  1  0
 22 23  1  0
 23 24  2  0
 23 25  1  0
M  CHG  2   6   1   8  -1
M  END
$$$$
