
     RDKit          3D

 13 14  0  0  0  0  0  0  0  0999 V2000
  -10.8026   23.2999   24.2077 C   0  0  0  0  0  0  0  0  0  0  0  0
   -9.6151   24.1470   24.2857 N   0  0  0  0  0  0  0  0  0  0  0  0
  -14.6568   19.1570   25.4424 C   0  0  0  0  0  0  0  0  0  0  0  0
  -15.0174   17.8685   26.0603 C   0  0  0  0  0  0  0  0  0  0  0  0
  -16.2777   17.1660   26.0920 C   0  0  0  0  0  0  0  0  0  0  0  0
  -16.2093   15.9631   26.8684 C   0  0  0  0  0  0  0  0  0  0  0  0
  -14.9515   15.7160   27.3541 C   0  0  0  0  0  0  0  0  0  0  0  0
  -13.8427   17.0109   26.9867 S   0  0  0  0  0  0  0  0  0  0  0  0
  -17.3159   15.1688   27.1071 O   0  0  0  0  0  0  0  0  0  0  0  0
  -18.5483   15.8827   26.8230 C   0  0  0  0  0  0  0  0  0  0  0  0
  -18.4912   16.6076   25.5224 C   0  0  0  0  0  0  0  0  0  0  0  0
  -17.4450   17.6125   25.4838 O   0  0  0  0  0  0  0  0  0  0  0  0
  -13.5337   19.6580   25.6295 O   0  0  0  0  0  0  0  0  0  0  0  0
  1  2  1  0
  2  3  1  0
  3  4  1  0
  4  5  2  0
  5  6  1  0
  6  7  2  0
  7  8  1  0
  4  8  1  0
  6  9  1  0
  9 10  1  0
 10 11  1  0
  5 12  1  0
 11 12  1  0
  3 13  2  0
M  END
$$$$
