
     RDKit          3D

 18 20  0  0  0  0  0  0  0  0999 V2000
   23.1368    2.6171   59.0076 N   0  0  0  0  0  0  0  0  0  0  0  0
   25.7940    1.4746   57.0034 C   0  0  0  0  0  0  0  0  0  0  0  0
   26.1533    1.9711   57.3215 C   0  0  0  0  0  0  0  0  0  0  0  0
   26.3250    1.0745   55.9272 N   0  0  0  0  0  0  0  0  0  0  0  0
   25.9937    1.3324   58.5447 C   0  0  0  0  0  0  0  0  0  0  0  0
   25.5190    1.9791   59.2351 C   0  0  0  0  0  0  0  0  0  0  0  0
   27.7807    1.3223   58.6970 C   0  0  0  0  0  0  0  0  0  0  0  0
   26.4618    1.5552   58.3087 C   0  0  0  0  0  0  0  0  0  0  0  0
   25.8068    1.2971   56.1367 N   0  0  0  0  0  0  0  0  0  0  0  0
   28.1260    1.5168   60.0312 C   0  0  0  0  0  0  0  0  0  0  0  0
   27.1750    1.9257   60.9632 C   0  0  0  0  0  0  0  0  0  0  0  0
   25.8662    2.1578   60.5769 C   0  0  0  0  0  0  0  0  0  0  0  0
   24.4642    1.9042   57.2163 N   0  0  0  0  0  0  0  0  0  0  0  0
   24.2806    2.1907   58.5094 C   0  0  0  0  0  0  0  0  0  0  0  0
   26.3013    1.9913   59.7238 C   0  0  0  0  0  0  0  0  0  0  0  0
   26.8005    3.2734   59.6922 C   0  0  0  0  0  0  0  0  0  0  0  0
   27.0074    3.8965   58.4824 C   0  0  0  0  0  0  0  0  0  0  0  0
   26.6671    3.2629   57.2956 C   0  0  0  0  0  0  0  0  0  0  0  0
  2  4  2  0
  3  5  2  0
  7  8  2  0
  6  8  1  0
  2  8  1  0
  4  9  1  0
  3  9  1  0
  7 10  1  0
 10 11  2  0
  6 12  2  0
 11 12  1  0
  2 13  1  0
 13 14  1  0
  1 14  2  0
  6 14  1  0
  5 15  1  0
 15 16  2  0
 16 17  1  0
 17 18  2  0
  3 18  1  0
M  END
$$$$
