
     RDKit          3D

 29 31  0  0  0  0  0  0  0  0999 V2000
   50.7698  -13.7607   70.9185 C   0  0  0  0  0  0  0  0  0  0  0  0
   60.4284  -11.6612   80.3385 C   0  0  0  0  0  0  0  0  0  0  0  0
   18.0431   -7.3946    8.1982 C   0  0  0  0  0  0  0  0  0  0  0  0
   16.7543   -6.9705    6.2483 C   0  0  0  0  0  0  0  0  0  0  0  0
   17.3649   -8.0462    5.6201 C   0  0  0  0  0  0  0  0  0  0  0  0
   18.3348   -8.8023    6.2594 C   0  0  0  0  0  0  0  0  0  0  0  0
   17.2427  -14.5056   -3.8217 C   0  0  0  0  0  0  0  0  0  0  0  0
   60.3917  -11.8538   84.9116 C   0  0  0  0  0  0  0  0  0  0  0  0
   60.4596  -12.2880   78.9534 C   0  0  0  0  0  0  0  0  0  0  0  0
   18.6585   -8.4593    7.5777 C   0  0  0  0  0  0  0  0  0  0  0  0
   17.0786   -6.6255    7.5445 C   0  0  0  0  0  0  0  0  0  0  0  0
   16.3999   -5.4576    8.2414 C   0  0  0  0  0  0  0  0  0  0  0  0
   49.6404  -14.6256   70.1829 C   0  0  0  0  0  0  0  0  0  0  0  0
   49.0148  -14.6811   68.7694 C   0  0  0  0  0  0  0  0  0  0  0  0
   49.7393  -14.4336   70.3395 C   0  0  0  0  0  0  0  0  0  0  0  0
   50.2048  -13.4260   68.3227 C   0  0  0  0  0  0  0  0  0  0  0  0
   51.5249  -12.8596   70.1131 C   0  0  0  0  0  0  0  0  0  0  0  0
   16.0961  -14.3114   -4.8385 C   0  0  1  0  0  0  0  0  0  0  0  0
   15.8946  -12.8709   -4.2581 C   0  0  0  0  0  0  0  0  0  0  0  0
   15.8946  -14.6934   -8.2096 C   0  0  0  0  0  0  0  0  0  0  0  0
   49.4510  -14.2589   69.0323 N   0  0  0  0  0  0  0  0  0  0  0  0
   49.8906  -13.2969   67.0083 N   0  0  0  0  0  0  0  0  0  0  0  0
   51.2171  -12.7101   68.8110 N   0  0  0  0  0  0  0  0  0  0  0  0
   52.5342  -12.1516   70.6028 N   0  0  0  0  0  0  0  0  0  0  0  0
   16.9687  -13.1337   -3.2686 N   0  0  0  0  0  0  0  0  0  0  0  0
   59.2718  -10.9486   84.7154 O   0  0  0  0  0  0  0  0  0  0  0  0
   19.6411   -9.2041    8.2103 O   0  0  0  0  0  0  0  0  0  0  0  0
   14.8662  -14.9613   -8.8544 O   0  0  0  0  0  0  0  0  0  0  0  0
   16.9687  -14.2154   -8.6957 O   0  0  0  0  0  0  0  0  0  0  0  0
  4  5  2  0
  5  6  1  0
  2  8  1  0
  2  9  1  0
  3 10  1  0
  6 10  2  0
  3 11  2  0
  4 11  1  0
 11 12  1  0
 13 14  1  0
 14 15  1  0
  1 15  1  0
  1 17  2  0
  7 18  1  0
 18 19  1  0
 18 20  1  6
 15 21  2  0
 16 21  1  0
 16 22  1  0
 16 23  2  0
 17 23  1  0
 17 24  1  0
  6 25  1  0
  7 25  1  0
 19 25  1  0
  1 26  1  0
  8 26  1  0
  9 27  1  0
 10 27  1  0
 20 28  2  0
 20 29  1  0
M  END
$$$$
