
     RDKit          3D

 32 35  0  0  0  0  0  0  0  0999 V2000
   41.8671  107.8738   61.6567 C   0  0  0  0  0  0  0  0  0  0  0  0
   44.1186  108.7085   60.9318 C   0  0  0  0  0  0  0  0  0  0  0  0
   45.4444  108.5567   61.0613 C   0  0  0  0  0  0  0  0  0  0  0  0
   40.4545  107.2373   62.2026 C   0  0  0  0  0  0  0  0  0  0  0  0
   79.1375  110.3568   58.8843 C   0  0  0  0  0  0  0  0  0  0  0  0
   92.7759  111.4583   46.0774 C   0  0  0  0  0  0  0  0  0  0  0  0
   92.2262  113.8499   45.6870 C   0  0  0  0  0  0  0  0  0  0  0  0
   40.5266  108.2224   61.2236 C   0  0  0  0  0  0  0  0  0  0  0  0
   39.2654  106.5313   62.3447 C   0  0  0  0  0  0  0  0  0  0  0  0
   96.2233  105.8412   44.8553 C   0  0  0  0  0  0  0  0  0  0  0  0
   80.8828  111.6120   55.9448 C   0  0  0  0  0  0  0  0  0  0  0  0
   79.6731  111.3094   56.5827 C   0  0  0  0  0  0  0  0  0  0  0  0
   43.6993  106.8958   62.4678 C   0  0  0  0  0  0  0  0  0  0  0  0
   42.6759  106.2489   63.0194 N   0  0  0  0  0  0  0  0  0  0  0  0
   68.1319  109.1857   60.3464 C   0  0  0  0  0  0  0  0  0  0  0  0
   43.2438  107.8954   61.6171 N   0  0  0  0  0  0  0  0  0  0  0  0
   88.9110  114.1768   49.8849 C   0  0  0  0  0  0  0  0  0  0  0  0
   41.5318  106.8505   62.5026 C   0  0  0  0  0  0  0  0  0  0  0  0
   45.0941  106.7167   62.6269 C   0  0  0  0  0  0  0  0  0  0  0  0
   80.0010  110.8137   57.8019 N   0  0  0  0  0  0  0  0  0  0  0  0
   81.3537  110.7742   57.9892 N   0  0  0  0  0  0  0  0  0  0  0  0
   81.8721  111.2438   56.8691 C   0  0  0  0  0  0  0  0  0  0  0  0
   45.9602  107.5198   61.9335 C   0  0  0  0  0  0  0  0  0  0  0  0
   66.7887  109.1989   60.6215 N   0  0  0  0  0  0  0  0  0  0  0  0
   91.9629  112.6234   46.4287 N   0  0  0  0  0  0  0  0  0  0  0  0
   68.9159  108.4239   60.9045 O   0  0  0  0  0  0  0  0  0  0  0  0
   89.5810  115.0241   49.2996 O   0  0  0  0  0  0  0  0  0  0  0  0
   97.7079  106.0822   44.7736 N   0  0  0  0  0  0  0  0  0  0  0  0
   98.5522  104.9165   44.4891 C   0  0  0  0  0  0  0  0  0  0  0  0
   38.1547  106.8635   61.5891 C   0  0  0  0  0  0  0  0  0  0  0  0
   39.4118  108.5465   60.4672 C   0  0  0  0  0  0  0  0  0  0  0  0
   38.2273  107.8641   60.6486 C   0  0  0  0  0  0  0  0  0  0  0  0
  2  3  2  0
  4  8  1  0
  4  9  2  0
  6 10  1  0
 11 12  2  0
 13 14  2  0
 12 15  1  0
 13 16  1  0
  1 16  1  0
  2 16  1  0
 11 17  1  0
 14 18  1  0
  1 18  2  0
  4 18  1  0
 13 19  1  0
 12 20  1  0
  5 20  1  0
 20 21  1  0
 11 22  1  0
 21 22  2  0
 19 23  2  0
  3 23  1  0
 15 24  1  0
 23 24  1  0
 17 25  1  0
  7 25  1  0
  6 25  1  0
 15 26  2  0
 17 27  2  0
 10 28  1  0
 28 29  1  0
  9 30  1  0
  8 31  2  0
 30 32  2  0
 31 32  1  0
M  END
$$$$
