
     RDKit          3D

 10 10  0  0  0  0  0  0  0  0999 V2000
  -13.6443  -47.6518   -5.9346 O   0  0  0  0  0  0  0  0  0  0  0  0
  -13.7639  -48.3218   -4.8684 C   0  0  0  0  0  0  0  0  0  0  0  0
  -14.0326  -47.7653   -3.7619 O   0  0  0  0  0  0  0  0  0  0  0  0
  -13.5521  -49.8213   -4.9245 C   0  0  0  0  0  0  0  0  0  0  0  0
  -13.9611  -47.9983   -4.8097 C   0  0  0  0  0  0  0  0  0  0  0  0
  -13.5843  -49.4667   -4.9612 C   0  0  0  0  0  0  0  0  0  0  0  0
  -12.7843  -50.0287   -5.9218 C   0  0  0  0  0  0  0  0  0  0  0  0
  -12.7299  -51.3346   -5.6472 N   0  0  0  0  0  0  0  0  0  0  0  0
  -13.4664  -51.5874   -4.5738 C   0  0  0  0  0  0  0  0  0  0  0  0
  -13.9742  -50.4455   -4.1539 N   0  0  0  0  0  0  0  0  0  0  0  0
  1  2  2  0
  2  3  1  0
  2  4  1  0
  4  5  1  0
  5  6  1  0
  6  7  2  0
  7  8  1  0
  8  9  2  0
  9 10  1  0
  6 10  1  0
M  END
$$$$
