
     RDKit          3D

 31 34  0  0  0  0  0  0  0  0999 V2000
   15.4378   25.3207   31.5515 C   0  0  0  0  0  0  0  0  0  0  0  0
   13.9081   23.5927   33.1897 C   0  0  0  0  0  0  0  0  0  0  0  0
   15.2532   23.9071   33.4223 C   0  0  0  0  0  0  0  0  0  0  0  0
   13.7777   23.9276   32.7015 C   0  0  0  0  0  0  0  0  0  0  0  0
   14.5345   25.0977   32.6068 C   0  0  0  0  0  0  0  0  0  0  0  0
   13.5022   23.8129   31.8801 C   0  0  0  0  0  0  0  0  0  0  0  0
   14.3264   24.2563   30.8628 C   0  0  0  0  0  0  0  0  0  0  0  0
   17.2592   24.2369   34.3910 N   0  0  0  0  0  0  0  0  0  0  0  0
   15.7097   24.5451   31.0813 C   0  0  0  0  0  0  0  0  0  0  0  0
   16.1714   24.3884   32.4142 C   0  0  0  0  0  0  0  0  0  0  0  0
   16.4837   24.5288   29.6138 F   0  0  0  0  0  0  0  0  0  0  0  0
   15.6072   24.3214   30.5942 C   0  0  0  0  0  0  0  0  0  0  0  0
   14.9116   23.1133   30.6626 C   0  0  0  0  0  0  0  0  0  0  0  0
   13.9709   22.8827   31.6836 C   0  0  0  0  0  0  0  0  0  0  0  0
   17.3946   24.5683   33.0407 N   0  0  0  0  0  0  0  0  0  0  0  0
   16.0137   23.8454   34.6961 C   0  0  0  0  0  0  0  0  0  0  0  0
   16.0246   23.9640   34.2053 C   0  0  0  0  0  0  0  0  0  0  0  0
   14.8634   23.4616   34.9676 N   0  0  0  0  0  0  0  0  0  0  0  0
   13.7604   24.4344   34.7904 C   0  0  0  0  0  0  0  0  0  0  0  0
   14.5379   22.0906   34.4730 C   0  0  0  0  0  0  0  0  0  0  0  0
   13.2659   21.7408   31.8082 O   0  0  0  0  0  0  0  0  0  0  0  0
   12.2365   20.7152   34.1064 C   0  0  0  0  0  0  0  0  0  0  0  0
   13.3382   20.3375   34.6697 C   0  0  0  0  0  0  0  0  0  0  0  0
   13.3484   21.6813   33.9887 C   0  0  0  0  0  0  0  0  0  0  0  0
   13.4703   22.0165   32.5473 C   0  0  0  0  0  0  0  0  0  0  0  0
   13.5711   20.9922   31.4214 C   0  0  0  0  0  0  0  0  0  0  0  0
   13.4495   23.3340   32.3595 N   0  0  0  0  0  0  0  0  0  0  0  0
   13.3440   23.8738   33.6414 N   0  0  0  0  0  0  0  0  0  0  0  0
   13.2489   25.3730   33.6862 C   0  0  0  0  0  0  0  0  0  0  0  0
   13.2449   22.9879   34.6274 C   0  0  0  0  0  0  0  0  0  0  0  0
   13.0540   23.3283   36.0596 C   0  0  0  0  0  0  0  0  0  0  0  0
  2  3  1  0
  1  5  2  0
  4  5  1  0
  4  6  1  0
  2  6  2  0
  6  7  1  0
  7  9  2  0
  3 10  1  0
  9 10  1  0
 11 12  1  0
  1 12  1  0
 12 13  2  0
 13 14  1  0
  4 14  2  0
 10 15  2  0
  8 15  1  0
  3 16  2  0
  8 16  1  0
 16 17  1  0
 17 18  1  0
 18 19  1  0
 18 20  1  0
 14 21  1  0
 21 22  1  0
 22 23  1  0
 23 24  1  0
 24 25  1  0
 25 26  1  0
 25 27  2  0
 27 28  1  0
 28 29  1  0
 24 30  2  0
 28 30  1  0
 30 31  1  0
M  END
$$$$
