
     RDKit          3D

 40 42  0  0  0  0  0  0  0  0999 V2000
   81.8360   -4.4169   30.2718 C   0  0  1  0  0  0  0  0  0  0  0  0
   82.5168   -3.1496   29.7775 C   0  0  1  0  0  0  0  0  0  0  0  0
   82.3086   -2.0461   30.7556 C   0  0  2  0  0  0  0  0  0  0  0  0
   80.8520   -1.7606   30.9504 C   0  0  1  0  0  0  0  0  0  0  0  0
   80.1242   -3.0270   31.4006 C   0  0  1  0  0  0  0  0  0  0  0  0
   76.1729   -1.9699   31.5800 C   0  0  0  0  0  0  0  0  0  0  0  0
   80.6635   -0.7862   31.9828 O   0  0  0  0  0  0  0  0  0  0  0  0
   82.4719   -4.7875   31.4439 O   0  0  0  0  0  0  0  0  0  0  0  0
   80.3875   -4.1418   30.4863 O   0  0  0  0  0  0  0  0  0  0  0  0
   75.3367   -1.2166   32.4976 N   0  0  0  0  0  0  0  0  0  0  0  0
  119.9663  -72.7490   35.8246 C   0  0  2  0  0  0  0  0  0  0  0  0
  120.3422  -72.5825   34.4151 N   0  0  0  0  0  0  0  0  0  0  0  0
  119.8970  -74.2531   36.0963 C   0  0  0  0  0  0  0  0  0  0  0  0
  119.4415  -74.5134   37.5436 C   0  0  2  0  0  0  0  0  0  0  0  0
  119.3776  -75.9547   37.8032 N   0  0  0  0  0  0  0  0  0  0  0  0
  118.0941  -73.8448   37.8306 C   0  0  1  0  0  0  0  0  0  0  0  0
  118.2075  -72.3344   37.5710 C   0  0  2  0  0  0  0  0  0  0  0  0
  116.9840  -71.6630   37.7606 O   0  0  0  0  0  0  0  0  0  0  0  0
  118.6400  -72.0363   36.1224 C   0  0  1  0  0  0  0  0  0  0  0  0
   98.3775    3.8998   30.2243 O   0  0  0  0  0  0  0  0  0  0  0  0
   99.0813    4.9392   30.7952 C   0  0  2  0  0  0  0  0  0  0  0  0
   98.3084    5.4885   31.9794 C   0  0  2  0  0  0  0  0  0  0  0  0
   98.0233    4.4109   32.8933 O   0  0  0  0  0  0  0  0  0  0  0  0
   97.0357    6.1482   31.5456 C   0  0  1  0  0  0  0  0  0  0  0  0
   96.3145    6.6795   32.7501 N   0  0  0  0  0  0  0  0  0  0  0  0
   97.3360    7.2640   30.5764 C   0  0  2  0  0  0  0  0  0  0  0  0
   96.1205    7.8785   30.1280 O   0  0  0  0  0  0  0  0  0  0  0  0
   98.0861    6.7111   29.3697 C   0  0  2  0  0  0  0  0  0  0  0  0
   99.3242    6.0174   29.7734 O   0  0  0  0  0  0  0  0  0  0  0  0
   96.9373   10.5551   29.3538 C   0  0  0  0  0  0  0  0  0  0  0  0
   97.0707   11.0375   28.0390 O   0  0  0  0  0  0  0  0  0  0  0  0
   83.9160   -3.4264   29.6348 O   0  0  0  0  0  0  0  0  0  0  0  0
   82.9722   -0.8736   30.2377 O   0  0  0  0  0  0  0  0  0  0  0  0
  111.7495   -4.3083    6.2245 N   0  0  0  0  0  0  0  0  0  0  0  0
  112.3643  -37.4162   10.3312 C   0  0  0  0  0  0  0  0  0  0  0  0
  112.9089  -36.5845    9.6821 O   0  0  0  0  0  0  0  0  0  0  0  0
  110.0160  -19.8968    7.6818 C   0  0  2  0  0  0  0  0  0  0  0  0
  110.5506  -18.4474    7.8346 C   0  0  0  0  0  0  0  0  0  0  0  0
  111.3665   -2.8791    6.4530 C   0  0  0  0  0  0  0  0  0  0  0  0
  109.0081  -20.1078    8.5968 O   0  0  0  0  0  0  0  0  0  0  0  0
  1  2  1  0
  2  3  1  0
  3  4  1  0
  4  5  1  0
  5  6  1  6
  4  7  1  1
  1  8  1  1
  5  9  1  0
  1  9  1  0
  6 10  1  0
 11 12  1  6
 11 13  1  0
 13 14  1  0
 14 15  1  6
 14 16  1  0
 16  8  1  1
 16 17  1  0
 17 18  1  6
 11 19  1  0
 17 19  1  0
 19 20  1  1
 21 20  1  6
 21 22  1  0
 22 23  1  1
 22 24  1  0
 24 25  1  1
 24 26  1  0
 26 27  1  6
 26 28  1  0
 21 29  1  0
 28 29  1  0
 28 30  1  6
 30 31  1  0
  2 32  1  1
  3 33  1  6
 12 35  1  0
 35 36  2  0
 35 37  1  0
 37 38  1  0
 38 39  1  0
 34 39  1  0
 37 40  1  1
M  END
$$$$
