
     RDKit          3D

 28 30  0  0  0  0  0  0  0  0999 V2000
   30.0875    7.3534   -7.3270 P   0  0  2  0  0  0  0  0  0  0  0  0
   28.5562    7.4249   -7.1938 O   0  0  0  0  0  0  0  0  0  0  0  0
   30.6024    5.9389   -7.4482 O   0  0  0  0  0  0  0  0  0  0  0  0
   30.7754    8.0855   -6.2022 O   0  0  0  0  0  0  0  0  0  0  0  0
   30.3948    8.0737   -8.7585 O   0  0  0  0  0  0  0  0  0  0  0  0
   31.9250   11.7306  -16.4287 P   0  0  2  0  0  0  0  0  0  0  0  0
   32.9497   10.6761  -16.1177 O   0  0  0  0  0  0  0  0  0  0  0  0
   30.4665   11.3109  -16.4046 O   0  0  0  0  0  0  0  0  0  0  0  0
   32.3139   12.2730  -17.9123 O   0  0  0  0  0  0  0  0  0  0  0  0
   48.1365   29.5718  -65.5433 C   0  0  0  0  0  0  0  0  0  0  0  0
   47.2920   30.7934  -65.4070 C   0  0  1  0  0  0  0  0  0  0  0  0
   46.7416   30.8910  -64.2230 O   0  0  0  0  0  0  0  0  0  0  0  0
   48.2192   32.1515  -65.6220 C   0  0  1  0  0  0  0  0  0  0  0  0
   47.3401   33.0145  -66.4124 O   0  0  0  0  0  0  0  0  0  0  0  0
   48.4199   32.6199  -64.4829 C   0  0  1  0  0  0  0  0  0  0  0  0
   48.6034   34.1053  -64.5006 O   0  0  0  0  0  0  0  0  0  0  0  0
   47.1145   32.2287  -63.6368 C   0  0  2  0  0  0  0  0  0  0  0  0
   39.4632   21.4001  -36.4090 N   0  0  0  0  0  0  0  0  0  0  0  0
   40.3782   20.4258  -36.6331 C   0  0  0  0  0  0  0  0  0  0  0  0
   40.3956   19.6110  -35.5622 N   0  0  0  0  0  0  0  0  0  0  0  0
   39.4964   20.0691  -34.6914 C   0  0  0  0  0  0  0  0  0  0  0  0
   39.0552   19.5878  -33.3044 C   0  0  0  0  0  0  0  0  0  0  0  0
   39.5223   18.6255  -32.7937 O   0  0  0  0  0  0  0  0  0  0  0  0
   38.0475   20.3007  -32.5927 N   0  0  0  0  0  0  0  0  0  0  0  0
   37.4535   21.4633  -33.1825 C   0  0  0  0  0  0  0  0  0  0  0  0
   36.4308   22.1784  -32.4595 N   0  0  0  0  0  0  0  0  0  0  0  0
   37.8724   21.9139  -34.4967 N   0  0  0  0  0  0  0  0  0  0  0  0
   38.9152   21.1818  -35.2351 C   0  0  0  0  0  0  0  0  0  0  0  0
  1  2  2  0
  1  3  1  6
  1  4  1  0
  1  5  1  0
  5  6  1  0
  6  7  2  0
  6  8  1  6
  6  9  1  0
  9 10  1  0
 11 10  1  1
 11 12  1  0
 11 13  1  0
 13 14  1  6
 13 15  1  0
 15 16  1  6
 12 17  1  0
 15 17  1  0
 17 18  1  1
 18 19  1  0
 19 20  2  0
 20 21  1  0
 21 22  1  0
 22 23  2  0
 22 24  1  0
 24 25  1  0
 25 26  1  0
 25 27  2  0
 18 28  1  0
 21 28  2  0
 27 28  1  0
M  END
$$$$
