
     RDKit          3D

 21 22  0  0  0  0  0  0  0  0999 V2000
   -6.5881   25.2788   17.5358 C   0  0  0  0  0  0  0  0  0  0  0  0
   -7.3899   26.3378   17.3232 N   0  0  0  0  0  0  0  0  0  0  0  0
   -8.5407   26.1201   16.6470 C   0  0  0  0  0  0  0  0  0  0  0  0
   -9.3483   27.1593   16.4274 N   0  0  0  0  0  0  0  0  0  0  0  0
   -8.9223   24.9266   16.1639 N   0  0  0  0  0  0  0  0  0  0  0  0
   -8.1251   23.8674   16.4164 C   0  0  0  0  0  0  0  0  0  0  0  0
   -8.5534   22.6743   15.9515 N   0  0  0  0  0  0  0  0  0  0  0  0
   -6.8887   23.9925   17.1133 C   0  0  0  0  0  0  0  0  0  0  0  0
   -6.0102   22.7797   17.4382 C   0  0  0  0  0  0  0  0  0  0  0  0
    8.2635    7.9973   22.4464 C   0  0  0  0  0  0  0  0  0  0  0  0
    9.5069    8.4793   22.8504 C   0  0  0  0  0  0  0  0  0  0  0  0
   10.4977    7.6152   23.3101 C   0  0  0  0  0  0  0  0  0  0  0  0
    9.2845    8.5207   22.8386 O   0  0  0  0  0  0  0  0  0  0  0  0
    8.0042    8.9357   22.3637 C   0  0  0  0  0  0  0  0  0  0  0  0
   10.2489    6.2424   23.3958 C   0  0  0  0  0  0  0  0  0  0  0  0
   33.8818  -11.2017   35.3226 O   0  0  0  0  0  0  0  0  0  0  0  0
   32.7121  -11.2005   36.1245 C   0  0  0  0  0  0  0  0  0  0  0  0
    8.9824    5.7716   23.0519 C   0  0  0  0  0  0  0  0  0  0  0  0
    7.4419    6.1429   21.6446 O   0  0  0  0  0  0  0  0  0  0  0  0
    6.5849    6.7309   20.6677 C   0  0  0  0  0  0  0  0  0  0  0  0
    8.0012    6.6412   22.5856 C   0  0  0  0  0  0  0  0  0  0  0  0
  1  2  2  0
  2  3  1  0
  3  4  1  0
  3  5  2  0
  5  6  1  0
  6  7  1  0
  1  8  1  0
  6  8  2  0
  8  9  1  0
  9 10  1  0
 10 11  2  0
 11 12  1  0
 12 13  1  0
 13 14  1  0
 12 15  2  0
 15 16  1  0
 16 17  1  0
 15 18  1  0
 18 19  1  0
 19 20  1  0
 10 21  1  0
 18 21  2  0
M  END
$$$$
