
     RDKit          3D

 25 26  0  0  0  0  0  0  0  0999 V2000
   70.4279    3.3344   55.5259 N   0  0  0  0  0  0  0  0  0  0  0  0
   68.6935    2.0135   56.4926 C   0  0  0  0  0  0  0  0  0  0  0  0
   68.2678    3.2164   55.6892 C   0  0  0  0  0  0  0  0  0  0  0  0
   67.2090    3.0950   54.7994 C   0  0  0  0  0  0  0  0  0  0  0  0
   66.8225    4.1943   54.0676 C   0  0  0  0  0  0  0  0  0  0  0  0
   64.6410    4.6240   51.7980 N   0  0  0  0  0  0  0  0  0  0  0  0
   63.7304    3.8127   51.7915 O   0  0  0  0  0  0  0  0  0  0  0  0
   64.5009    5.8001   51.4886 O   0  0  0  0  0  0  0  0  0  0  0  0
   67.4417    5.4234   54.1782 C   0  0  0  0  0  0  0  0  0  0  0  0
   68.4884    5.5391   55.0737 C   0  0  0  0  0  0  0  0  0  0  0  0
   68.8989    4.4441   55.8185 C   0  0  0  0  0  0  0  0  0  0  0  0
   70.6463    3.5523   56.8229 C   0  0  0  0  0  0  0  0  0  0  0  0
   69.7943    3.3211   57.6765 O   0  0  0  0  0  0  0  0  0  0  0  0
   71.7893    3.9596   57.2208 C   0  0  0  0  0  0  0  0  0  0  0  0
   72.7623    4.2181   58.1880 C   0  0  0  0  0  0  0  0  0  0  0  0
   72.6216    3.7640   59.4847 C   0  0  0  0  0  0  0  0  0  0  0  0
   71.5055    3.0427   59.7970 C   0  0  0  0  0  0  0  0  0  0  0  0
   71.3616    2.5926   61.0672 F   0  0  0  0  0  0  0  0  0  0  0  0
   70.5051    2.7657   58.8969 C   0  0  0  0  0  0  0  0  0  0  0  0
   70.6488    3.2505   57.6099 C   0  0  0  0  0  0  0  0  0  0  0  0
   69.6568    3.1168   56.6691 O   0  0  0  0  0  0  0  0  0  0  0  0
   71.1965    3.4798   57.7448 C   0  0  0  0  0  0  0  0  0  0  0  0
   72.2286    4.1679   58.6009 C   0  0  0  0  0  0  0  0  0  0  0  0
   72.4574    3.5736   59.7357 O   0  0  0  0  0  0  0  0  0  0  0  0
   72.8567    5.1362   58.1880 O   0  0  0  0  0  0  0  0  0  0  0  0
  1  2  1  0
  2  3  1  0
  3  4  2  0
  4  5  1  0
  5  6  1  0
  6  7  2  0
  6  8  1  0
  5  9  2  0
  9 10  1  0
 10 11  2  0
  3 11  1  0
  1 12  1  0
 12 13  2  0
 12 14  1  0
 14 15  1  0
 15 16  2  0
 16 17  1  0
 17 18  1  0
 17 19  2  0
 14 20  2  0
 19 20  1  0
 20 21  1  0
 21 22  1  0
 22 23  1  0
 23 24  2  0
 23 25  1  0
M  CHG  2   6   1   8  -1
M  END
$$$$
