
     RDKit          3D

 13 14  0  0  0  0  0  0  0  0999 V2000
  -19.2556   17.4664   31.0938 C   0  0  0  0  0  0  0  0  0  0  0  0
  -18.6576   16.6247   30.0606 N   0  0  0  0  0  0  0  0  0  0  0  0
  -19.4762   16.2222   29.0622 C   0  0  0  0  0  0  0  0  0  0  0  0
  -19.5267   14.8532   28.5188 C   0  0  0  0  0  0  0  0  0  0  0  0
  -20.4123   14.2662   27.5420 C   0  0  0  0  0  0  0  0  0  0  0  0
  -20.1570   12.8692   27.3482 C   0  0  0  0  0  0  0  0  0  0  0  0
  -19.0925   12.4171   28.0841 C   0  0  0  0  0  0  0  0  0  0  0  0
  -18.4512   13.6536   29.1334 S   0  0  0  0  0  0  0  0  0  0  0  0
  -20.9340   12.0797   26.5202 O   0  0  0  0  0  0  0  0  0  0  0  0
  -22.1980   12.7247   26.2111 C   0  0  0  0  0  0  0  0  0  0  0  0
  -22.0213   14.1541   25.8292 C   0  0  0  0  0  0  0  0  0  0  0  0
  -21.4302   14.9506   26.8884 O   0  0  0  0  0  0  0  0  0  0  0  0
  -18.7061   16.5056   29.9971 O   0  0  0  0  0  0  0  0  0  0  0  0
  1  2  1  0
  2  3  1  0
  3  4  1  0
  4  5  2  0
  5  6  1  0
  6  7  2  0
  7  8  1  0
  4  8  1  0
  6  9  1  0
  9 10  1  0
 10 11  1  0
  5 12  1  0
 11 12  1  0
  3 13  2  0
M  END
$$$$
