
     RDKit          3D

 18 20  0  0  0  0  0  0  0  0999 V2000
   24.5015    4.4880   60.4971 N   0  0  0  0  0  0  0  0  0  0  0  0
   26.4640    2.7250   58.1684 C   0  0  0  0  0  0  0  0  0  0  0  0
   26.5674    3.1229   57.8080 C   0  0  0  0  0  0  0  0  0  0  0  0
   26.8883    2.4440   57.0102 N   0  0  0  0  0  0  0  0  0  0  0  0
   26.2965    2.2614   58.8636 C   0  0  0  0  0  0  0  0  0  0  0  0
   26.0972    2.5948   60.4397 C   0  0  0  0  0  0  0  0  0  0  0  0
   27.7222    0.9855   59.6615 C   0  0  0  0  0  0  0  0  0  0  0  0
   26.8229    2.0199   59.4054 C   0  0  0  0  0  0  0  0  0  0  0  0
   26.6415    2.6141   56.4989 N   0  0  0  0  0  0  0  0  0  0  0  0
   27.8687    0.5401   60.9719 C   0  0  0  0  0  0  0  0  0  0  0  0
   27.1272    1.1061   62.0063 C   0  0  0  0  0  0  0  0  0  0  0  0
   26.2355    2.1337   61.7517 C   0  0  0  0  0  0  0  0  0  0  0  0
   25.5503    3.7360   58.5443 N   0  0  0  0  0  0  0  0  0  0  0  0
   25.3145    3.6696   59.8589 C   0  0  0  0  0  0  0  0  0  0  0  0
   26.1900    2.7493   60.1557 C   0  0  0  0  0  0  0  0  0  0  0  0
   26.3856    4.0877   60.4102 C   0  0  0  0  0  0  0  0  0  0  0  0
   26.7020    4.9406   59.3773 C   0  0  0  0  0  0  0  0  0  0  0  0
   26.7734    4.4723   58.0730 C   0  0  0  0  0  0  0  0  0  0  0  0
  2  4  2  0
  3  5  2  0
  7  8  2  0
  6  8  1  0
  2  8  1  0
  4  9  1  0
  3  9  1  0
  7 10  1  0
 10 11  2  0
  6 12  2  0
 11 12  1  0
  2 13  1  0
 13 14  1  0
  1 14  2  0
  6 14  1  0
  5 15  1  0
 15 16  2  0
 16 17  1  0
 17 18  2  0
  3 18  1  0
M  END
$$$$
