
     RDKit          3D

 29 31  0  0  0  0  0  0  0  0999 V2000
   13.4741   -0.0995   16.9245 C   0  0  0  0  0  0  0  0  0  0  0  0
   14.5310   -0.1061   16.3363 C   0  0  0  0  0  0  0  0  0  0  0  0
   14.1319    0.8420   16.3697 C   0  0  0  0  0  0  0  0  0  0  0  0
   12.3803    2.4386   16.2110 C   0  0  0  0  0  0  0  0  0  0  0  0
   11.5544    1.4668   15.6650 C   0  0  0  0  0  0  0  0  0  0  0  0
   12.0047    0.1746   15.4452 C   0  0  0  0  0  0  0  0  0  0  0  0
   11.5255   -1.0683   14.7809 C   0  0  0  0  0  0  0  0  0  0  0  0
   14.0792   -0.2404   16.0342 C   0  0  0  0  0  0  0  0  0  0  0  0
   14.2889   -1.5396   16.7823 C   0  0  0  0  0  0  0  0  0  0  0  0
   13.3195   -0.1257   15.8213 C   0  0  0  0  0  0  0  0  0  0  0  0
   13.6793    2.1468   16.5740 C   0  0  0  0  0  0  0  0  0  0  0  0
   14.5817    3.2049   17.1873 C   0  0  0  0  0  0  0  0  0  0  0  0
   15.5308   -1.6619   19.4399 C   0  0  0  0  0  0  0  0  0  0  0  0
   15.5018   -0.6996   18.2293 C   0  0  0  0  0  0  0  0  0  0  0  0
   14.5236   -0.8943   17.2662 C   0  0  0  0  0  0  0  0  0  0  0  0
   14.3912   -1.9578   15.2289 C   0  0  0  0  0  0  0  0  0  0  0  0
   12.8644   -0.2967   15.6516 C   0  0  0  0  0  0  0  0  0  0  0  0
   10.6331    0.1356   14.4062 C   0  0  1  0  0  0  0  0  0  0  0  0
   11.8278    1.0738   14.7873 C   0  0  0  0  0  0  0  0  0  0  0  0
   10.8962    0.9157   13.9119 C   0  0  0  0  0  0  0  0  0  0  0  0
   14.9808   -1.8355   16.4133 N   0  0  0  0  0  0  0  0  0  0  0  0
   14.8971   -2.9035   14.3965 N   0  0  0  0  0  0  0  0  0  0  0  0
   13.3457   -1.2397   14.8201 N   0  0  0  0  0  0  0  0  0  0  0  0
   11.8260    0.4231   15.2474 N   0  0  0  0  0  0  0  0  0  0  0  0
   12.6196   -0.1173   15.1827 N   0  0  0  0  0  0  0  0  0  0  0  0
   13.3282   -0.4273   17.2644 O   0  0  0  0  0  0  0  0  0  0  0  0
   13.7751   -1.4128   15.5847 O   0  0  0  0  0  0  0  0  0  0  0  0
   10.0525    1.2596   13.0663 O   0  0  0  0  0  0  0  0  0  0  0  0
   12.0844    1.3627   13.9952 O   0  0  0  0  0  0  0  0  0  0  0  0
  4  5  2  0
  5  6  1  0
  2  8  1  0
  2  9  1  0
  3 10  1  0
  6 10  2  0
  3 11  2  0
  4 11  1  0
 11 12  1  0
 13 14  1  0
 14 15  1  0
  1 15  1  0
  1 17  2  0
  7 18  1  0
 18 19  1  0
 18 20  1  6
 15 21  2  0
 16 21  1  0
 16 22  1  0
 16 23  2  0
 17 23  1  0
 17 24  1  0
  6 25  1  0
  7 25  1  0
 19 25  1  0
  1 26  1  0
  8 26  1  0
  9 27  1  0
 10 27  1  0
 20 28  2  0
 20 29  1  0
M  END
$$$$
