
     RDKit          3D

 32 35  0  0  0  0  0  0  0  0999 V2000
   35.4995  108.4809   59.9314 C   0  0  0  0  0  0  0  0  0  0  0  0
   37.3345  109.3710   58.4710 C   0  0  0  0  0  0  0  0  0  0  0  0
   38.1414  109.1097   57.4327 C   0  0  0  0  0  0  0  0  0  0  0  0
   36.0790  107.2039   58.9751 C   0  0  0  0  0  0  0  0  0  0  0  0
   37.9821  104.1553   60.8192 C   0  0  0  0  0  0  0  0  0  0  0  0
   40.0008  105.6397   60.8504 C   0  0  0  0  0  0  0  0  0  0  0  0
   41.1875  107.5416   59.7785 C   0  0  0  0  0  0  0  0  0  0  0  0
   36.9314  107.9887   58.2060 C   0  0  0  0  0  0  0  0  0  0  0  0
   35.7016  105.9596   58.4836 C   0  0  0  0  0  0  0  0  0  0  0  0
   40.9455  105.2567   61.5012 C   0  0  0  0  0  0  0  0  0  0  0  0
   40.4035  105.5726   58.4973 C   0  0  0  0  0  0  0  0  0  0  0  0
   39.3519  105.7694   59.4014 C   0  0  0  0  0  0  0  0  0  0  0  0
   36.2784  107.2107   58.2726 C   0  0  0  0  0  0  0  0  0  0  0  0
   35.3278  106.4879   58.8591 N   0  0  0  0  0  0  0  0  0  0  0  0
   39.0975  106.5730   58.9826 C   0  0  0  0  0  0  0  0  0  0  0  0
   36.4079  108.4454   58.8965 N   0  0  0  0  0  0  0  0  0  0  0  0
   39.7234  106.2421   59.1303 C   0  0  0  0  0  0  0  0  0  0  0  0
   34.8320  107.2861   59.8863 C   0  0  0  0  0  0  0  0  0  0  0  0
   37.1210  106.9067   57.1769 C   0  0  0  0  0  0  0  0  0  0  0  0
   39.0030  104.5383   59.8512 N   0  0  0  0  0  0  0  0  0  0  0  0
   39.7657  103.5547   59.2878 N   0  0  0  0  0  0  0  0  0  0  0  0
   40.5928  104.1825   58.4719 C   0  0  0  0  0  0  0  0  0  0  0  0
   38.0324  107.8355   56.7496 C   0  0  0  0  0  0  0  0  0  0  0  0
   37.9043  107.0927   58.5510 N   0  0  0  0  0  0  0  0  0  0  0  0
   40.0693  106.6074   59.7546 N   0  0  0  0  0  0  0  0  0  0  0  0
   39.9114  107.2272   59.6279 O   0  0  0  0  0  0  0  0  0  0  0  0
   40.4750  105.5392   58.4589 O   0  0  0  0  0  0  0  0  0  0  0  0
   42.2616  105.3773   62.2238 N   0  0  0  0  0  0  0  0  0  0  0  0
   42.3405  106.3813   63.2907 C   0  0  0  0  0  0  0  0  0  0  0  0
   36.0947  105.5525   57.2209 C   0  0  0  0  0  0  0  0  0  0  0  0
   37.3250  107.5727   56.9443 C   0  0  0  0  0  0  0  0  0  0  0  0
   36.9087  106.3529   56.4542 C   0  0  0  0  0  0  0  0  0  0  0  0
  2  3  2  0
  4  8  1  0
  4  9  2  0
  6 10  1  0
 11 12  2  0
 13 14  2  0
 12 15  1  0
 13 16  1  0
  1 16  1  0
  2 16  1  0
 11 17  1  0
 14 18  1  0
  1 18  2  0
  4 18  1  0
 13 19  1  0
 12 20  1  0
  5 20  1  0
 20 21  1  0
 11 22  1  0
 21 22  2  0
 19 23  2  0
  3 23  1  0
 15 24  1  0
 23 24  1  0
 17 25  1  0
  7 25  1  0
  6 25  1  0
 15 26  2  0
 17 27  2  0
 10 28  1  0
 28 29  1  0
  9 30  1  0
  8 31  2  0
 30 32  2  0
 31 32  1  0
M  END
$$$$
