
     RDKit          3D

 10 10  0  0  0  0  0  0  0  0999 V2000
  -11.9250  -49.6465   -7.4010 O   0  0  0  0  0  0  0  0  0  0  0  0
  -12.2926  -50.0616   -6.2640 C   0  0  0  0  0  0  0  0  0  0  0  0
  -12.4768  -49.2657   -5.2951 O   0  0  0  0  0  0  0  0  0  0  0  0
  -12.4879  -51.5507   -6.0620 C   0  0  0  0  0  0  0  0  0  0  0  0
  -12.2510  -50.1319   -6.1415 C   0  0  0  0  0  0  0  0  0  0  0  0
  -12.5361  -51.6266   -6.0650 C   0  0  0  0  0  0  0  0  0  0  0  0
  -11.9730  -52.6238   -6.8182 C   0  0  0  0  0  0  0  0  0  0  0  0
  -12.5164  -53.7673   -6.3927 N   0  0  0  0  0  0  0  0  0  0  0  0
  -13.3865  -53.5058   -5.4267 C   0  0  0  0  0  0  0  0  0  0  0  0
  -13.3856  -52.2031   -5.2236 N   0  0  0  0  0  0  0  0  0  0  0  0
  1  2  2  0
  2  3  1  0
  2  4  1  0
  4  5  1  0
  5  6  1  0
  6  7  2  0
  7  8  1  0
  8  9  2  0
  9 10  1  0
  6 10  1  0
M  END
$$$$
