
     RDKit          3D

 31 34  0  0  0  0  0  0  0  0999 V2000
   18.3676   27.0859   28.8951 C   0  0  0  0  0  0  0  0  0  0  0  0
   16.2988   25.0768   31.4280 C   0  0  0  0  0  0  0  0  0  0  0  0
   16.9241   25.1912   32.6762 C   0  0  0  0  0  0  0  0  0  0  0  0
   17.6721   25.9351   30.9472 C   0  0  0  0  0  0  0  0  0  0  0  0
   18.5043   26.8307   30.2718 C   0  0  0  0  0  0  0  0  0  0  0  0
   17.0222   25.6450   30.3876 C   0  0  0  0  0  0  0  0  0  0  0  0
   18.2644   26.2365   30.5214 C   0  0  0  0  0  0  0  0  0  0  0  0
   17.3968   25.0777   34.8750 N   0  0  0  0  0  0  0  0  0  0  0  0
   18.9276   26.3259   31.7850 C   0  0  0  0  0  0  0  0  0  0  0  0
   18.2134   25.8078   32.8966 C   0  0  0  0  0  0  0  0  0  0  0  0
   17.2885   26.6173   26.8722 F   0  0  0  0  0  0  0  0  0  0  0  0
   17.3938   26.3903   28.1798 C   0  0  0  0  0  0  0  0  0  0  0  0
   16.5636   25.4504   28.7926 C   0  0  0  0  0  0  0  0  0  0  0  0
   16.6512   25.2081   30.1761 C   0  0  0  0  0  0  0  0  0  0  0  0
   18.4768   25.7096   34.2538 N   0  0  0  0  0  0  0  0  0  0  0  0
   16.4307   24.7495   34.0051 C   0  0  0  0  0  0  0  0  0  0  0  0
   16.4999   24.7160   33.4980 C   0  0  0  0  0  0  0  0  0  0  0  0
   16.0257   24.4419   34.8698 N   0  0  0  0  0  0  0  0  0  0  0  0
   15.0798   25.5210   35.2375 C   0  0  0  0  0  0  0  0  0  0  0  0
   15.4160   23.0787   34.8895 C   0  0  0  0  0  0  0  0  0  0  0  0
   15.8814   24.3159   30.8302 O   0  0  0  0  0  0  0  0  0  0  0  0
   15.8136   24.5718   31.8270 C   0  0  0  0  0  0  0  0  0  0  0  0
   17.1892   23.9215   32.1990 C   0  0  0  0  0  0  0  0  0  0  0  0
   15.8593   24.5248   31.8290 C   0  0  0  0  0  0  0  0  0  0  0  0
   14.8795   24.1063   30.7946 C   0  0  0  0  0  0  0  0  0  0  0  0
   15.0352   22.8866   29.8917 C   0  0  0  0  0  0  0  0  0  0  0  0
   13.8264   24.9199   30.7768 N   0  0  0  0  0  0  0  0  0  0  0  0
   14.1005   25.8771   31.7538 N   0  0  0  0  0  0  0  0  0  0  0  0
   13.0133   26.8941   31.9598 C   0  0  0  0  0  0  0  0  0  0  0  0
   15.2327   25.6979   32.4266 C   0  0  0  0  0  0  0  0  0  0  0  0
   15.6951   26.5466   33.5534 C   0  0  0  0  0  0  0  0  0  0  0  0
  2  3  1  0
  1  5  2  0
  4  5  1  0
  4  6  1  0
  2  6  2  0
  6  7  1  0
  7  9  2  0
  3 10  1  0
  9 10  1  0
 11 12  1  0
  1 12  1  0
 12 13  2  0
 13 14  1  0
  4 14  2  0
 10 15  2  0
  8 15  1  0
  3 16  2  0
  8 16  1  0
 16 17  1  0
 17 18  1  0
 18 19  1  0
 18 20  1  0
 14 21  1  0
 21 22  1  0
 22 23  1  0
 23 24  1  0
 24 25  1  0
 25 26  1  0
 25 27  2  0
 27 28  1  0
 28 29  1  0
 24 30  2  0
 28 30  1  0
 30 31  1  0
M  END
$$$$
