
     RDKit          3D

 40 42  0  0  0  0  0  0  0  0999 V2000
   95.9545   10.1342   31.7812 C   0  0  1  0  0  0  0  0  0  0  0  0
   96.2172    8.9069   30.9219 C   0  0  1  0  0  0  0  0  0  0  0  0
   94.9283    8.3426   30.4339 C   0  0  2  0  0  0  0  0  0  0  0  0
   94.0426    7.9464   31.5740 C   0  0  1  0  0  0  0  0  0  0  0  0
   93.7962    9.1457   32.4890 C   0  0  1  0  0  0  0  0  0  0  0  0
   92.5313    9.1464   33.7986 C   0  0  0  0  0  0  0  0  0  0  0  0
   92.7617    7.5233   31.0930 O   0  0  0  0  0  0  0  0  0  0  0  0
   95.3784   11.0879   30.9600 O   0  0  0  0  0  0  0  0  0  0  0  0
   95.0593    9.7573   32.9111 O   0  0  0  0  0  0  0  0  0  0  0  0
   91.8610   10.4345   33.8012 N   0  0  0  0  0  0  0  0  0  0  0  0
   93.4257    8.8622   32.0299 C   0  0  2  0  0  0  0  0  0  0  0  0
   93.0951    7.4430   32.2093 N   0  0  0  0  0  0  0  0  0  0  0  0
   93.7984    9.0539   30.5584 C   0  0  0  0  0  0  0  0  0  0  0  0
   94.2247   10.5106   30.3014 C   0  0  2  0  0  0  0  0  0  0  0  0
   94.5794   10.6934   28.8909 N   0  0  0  0  0  0  0  0  0  0  0  0
   95.3835   10.9196   31.2151 C   0  0  2  0  0  0  0  0  0  0  0  0
   94.9659   10.7376   32.6827 C   0  0  2  0  0  0  0  0  0  0  0  0
   96.0080   11.0417   33.5798 O   0  0  0  0  0  0  0  0  0  0  0  0
   94.5540    9.2830   32.9814 C   0  0  1  0  0  0  0  0  0  0  0  0
   94.8021    9.3503   35.0910 O   0  0  0  0  0  0  0  0  0  0  0  0
   93.9733    8.3114   34.7231 C   0  0  2  0  0  0  0  0  0  0  0  0
   94.7704    7.0223   34.6567 C   0  0  2  0  0  0  0  0  0  0  0  0
   95.4328    6.8155   35.9200 O   0  0  0  0  0  0  0  0  0  0  0  0
   95.7748    7.0548   33.5460 C   0  0  1  0  0  0  0  0  0  0  0  0
   96.5295    5.7576   33.5189 N   0  0  0  0  0  0  0  0  0  0  0  0
   95.0806    7.2885   32.2277 C   0  0  2  0  0  0  0  0  0  0  0  0
   96.0382    7.3567   31.1626 O   0  0  0  0  0  0  0  0  0  0  0  0
   94.3027    8.5988   32.2795 C   0  0  1  0  0  0  0  0  0  0  0  0
   93.3349    8.6101   33.3931 O   0  0  0  0  0  0  0  0  0  0  0  0
   94.4311    9.4887   31.6940 C   0  0  0  0  0  0  0  0  0  0  0  0
   95.5145    9.2425   30.8310 O   0  0  0  0  0  0  0  0  0  0  0  0
   97.0318    9.3096   29.8133 O   0  0  0  0  0  0  0  0  0  0  0  0
   95.2363    7.1853   29.6283 O   0  0  0  0  0  0  0  0  0  0  0  0
   94.4018    6.9648   33.2590 N   0  0  0  0  0  0  0  0  0  0  0  0
   93.5804    8.9167   32.0082 C   0  0  0  0  0  0  0  0  0  0  0  0
   94.0456    9.7412   31.2917 O   0  0  0  0  0  0  0  0  0  0  0  0
   92.9948    8.6892   33.3791 C   0  0  2  0  0  0  0  0  0  0  0  0
   93.2118    9.7251   32.2435 C   0  0  0  0  0  0  0  0  0  0  0  0
   93.6531    8.2182   33.5905 C   0  0  0  0  0  0  0  0  0  0  0  0
   93.4520    9.2154   34.5672 O   0  0  0  0  0  0  0  0  0  0  0  0
  1  2  1  0
  2  3  1  0
  3  4  1  0
  4  5  1  0
  5  6  1  1
  4  7  1  6
  1  8  1  6
  5  9  1  0
  1  9  1  0
  6 10  1  0
 11 12  1  6
 11 13  1  0
 13 14  1  0
 14 15  1  6
 14 16  1  0
 16  8  1  1
 16 17  1  0
 17 18  1  1
 11 19  1  0
 17 19  1  0
 19 20  1  1
 21 20  1  6
 21 22  1  0
 22 23  1  1
 22 24  1  0
 24 25  1  6
 24 26  1  0
 26 27  1  6
 26 28  1  0
 21 29  1  0
 28 29  1  0
 28 30  1  6
 30 31  1  0
  2 32  1  6
  3 33  1  6
 12 35  1  0
 35 36  2  0
 35 37  1  0
 37 38  1  0
 38 39  1  0
 34 39  1  0
 37 40  1  1
M  END
$$$$
