
     RDKit          3D

 28 30  0  0  0  0  0  0  0  0999 V2000
   27.7739    1.8229    3.2323 P   0  0  2  0  0  0  0  0  0  0  0  0
   27.0341    2.2235    1.9440 O   0  0  0  0  0  0  0  0  0  0  0  0
   27.3948    0.4466    3.7250 O   0  0  0  0  0  0  0  0  0  0  0  0
   27.5942    2.8549    4.3173 O   0  0  0  0  0  0  0  0  0  0  0  0
   29.3383    1.7286    2.7780 O   0  0  0  0  0  0  0  0  0  0  0  0
   27.7887    1.8198    3.2299 P   0  0  1  0  0  0  0  0  0  0  0  0
   27.4249    2.9209    4.1859 O   0  0  0  0  0  0  0  0  0  0  0  0
   26.7334    1.3951    2.2249 O   0  0  0  0  0  0  0  0  0  0  0  0
   28.1862    0.5554    4.1733 O   0  0  0  0  0  0  0  0  0  0  0  0
   28.1304    0.8887    4.1834 C   0  0  0  0  0  0  0  0  0  0  0  0
   29.2348    0.5228    3.2505 C   0  0  1  0  0  0  0  0  0  0  0  0
   29.2940    1.3159    2.2103 O   0  0  0  0  0  0  0  0  0  0  0  0
   30.6955    0.6358    4.0276 C   0  0  1  0  0  0  0  0  0  0  0  0
   31.4133   -0.5375    3.5272 O   0  0  0  0  0  0  0  0  0  0  0  0
   31.2188    1.6976    3.6325 C   0  0  1  0  0  0  0  0  0  0  0  0
   32.7144    1.6380    3.6499 O   0  0  0  0  0  0  0  0  0  0  0  0
   30.6852    1.8906    2.1321 C   0  0  1  0  0  0  0  0  0  0  0  0
   30.5864    1.4703    2.5326 N   0  0  0  0  0  0  0  0  0  0  0  0
   31.5269    0.7309    1.8960 C   0  0  0  0  0  0  0  0  0  0  0  0
   32.1992    0.0198    2.8198 N   0  0  0  0  0  0  0  0  0  0  0  0
   31.6750    0.3077    4.0112 C   0  0  0  0  0  0  0  0  0  0  0  0
   32.0009   -0.1686    5.4314 C   0  0  0  0  0  0  0  0  0  0  0  0
   32.8618   -0.9533    5.6504 O   0  0  0  0  0  0  0  0  0  0  0  0
   31.2517    0.3289    6.5365 N   0  0  0  0  0  0  0  0  0  0  0  0
   30.1972    1.2716    6.3091 C   0  0  0  0  0  0  0  0  0  0  0  0
   29.4394    1.7685    7.4311 N   0  0  0  0  0  0  0  0  0  0  0  0
   29.8907    1.7178    4.9629 N   0  0  0  0  0  0  0  0  0  0  0  0
   30.6636    1.2083    3.8177 C   0  0  0  0  0  0  0  0  0  0  0  0
  1  2  2  0
  1  3  1  1
  1  4  1  0
  1  5  1  0
  5  6  1  0
  6  7  2  0
  6  8  1  6
  6  9  1  0
  9 10  1  0
 11 10  1  1
 11 12  1  0
 11 13  1  0
 13 14  1  6
 13 15  1  0
 15 16  1  6
 12 17  1  0
 15 17  1  0
 17 18  1  1
 18 19  1  0
 19 20  2  0
 20 21  1  0
 21 22  1  0
 22 23  2  0
 22 24  1  0
 24 25  1  0
 25 26  1  0
 25 27  2  0
 18 28  1  0
 21 28  2  0
 27 28  1  0
M  END
$$$$
