
     RDKit          3D

 21 22  0  0  0  0  0  0  0  0999 V2000
   -8.8746   28.6215   16.6393 C   0  0  0  0  0  0  0  0  0  0  0  0
   -9.5735   29.7022   16.2481 N   0  0  0  0  0  0  0  0  0  0  0  0
  -10.7689   29.4872   15.6533 C   0  0  0  0  0  0  0  0  0  0  0  0
  -11.4760   30.5479   15.2590 N   0  0  0  0  0  0  0  0  0  0  0  0
  -11.2902   28.2726   15.4156 N   0  0  0  0  0  0  0  0  0  0  0  0
  -10.5940   27.1996   15.8462 C   0  0  0  0  0  0  0  0  0  0  0  0
  -11.1610   25.9939   15.6274 N   0  0  0  0  0  0  0  0  0  0  0  0
   -9.3221   27.3189   16.4769 C   0  0  0  0  0  0  0  0  0  0  0  0
   -8.5575   26.1008   17.0059 C   0  0  0  0  0  0  0  0  0  0  0  0
   -9.1942   26.7264   16.0967 C   0  0  0  0  0  0  0  0  0  0  0  0
   -8.9920   26.9453   17.4578 C   0  0  0  0  0  0  0  0  0  0  0  0
  -10.0115   27.4451   18.2644 C   0  0  0  0  0  0  0  0  0  0  0  0
   -9.4132   27.0545   16.9277 O   0  0  0  0  0  0  0  0  0  0  0  0
   -9.1696   27.8922   15.7981 C   0  0  0  0  0  0  0  0  0  0  0  0
  -11.2560   27.7592   17.7109 C   0  0  0  0  0  0  0  0  0  0  0  0
  -12.3924   28.1984   17.7202 O   0  0  0  0  0  0  0  0  0  0  0  0
  -13.2322   27.2413   18.3447 C   0  0  0  0  0  0  0  0  0  0  0  0
  -11.4341   27.5997   16.3372 C   0  0  0  0  0  0  0  0  0  0  0  0
  -12.5035   27.8898   16.9432 O   0  0  0  0  0  0  0  0  0  0  0  0
  -13.6246   28.5653   16.3763 C   0  0  0  0  0  0  0  0  0  0  0  0
  -10.4126   27.0919   15.5403 C   0  0  0  0  0  0  0  0  0  0  0  0
  1  2  2  0
  2  3  1  0
  3  4  1  0
  3  5  2  0
  5  6  1  0
  6  7  1  0
  1  8  1  0
  6  8  2  0
  8  9  1  0
  9 10  1  0
 10 11  2  0
 11 12  1  0
 12 13  1  0
 13 14  1  0
 12 15  2  0
 15 16  1  0
 16 17  1  0
 15 18  1  0
 18 19  1  0
 19 20  1  0
 10 21  1  0
 18 21  2  0
M  END
$$$$
