
     RDKit          3D

 25 26  0  0  0  0  0  0  0  0999 V2000
   79.0656    6.1589   63.1623 N   0  0  0  0  0  0  0  0  0  0  0  0
   76.7052    5.0836   64.9753 C   0  0  0  0  0  0  0  0  0  0  0  0
   77.4064    6.1553   64.1794 C   0  0  0  0  0  0  0  0  0  0  0  0
   78.7252    5.9573   63.7937 C   0  0  0  0  0  0  0  0  0  0  0  0
   79.3626    6.9369   63.0675 C   0  0  0  0  0  0  0  0  0  0  0  0
   78.7259    6.2820   63.9099 N   0  0  0  0  0  0  0  0  0  0  0  0
   77.8909    5.4028   64.0406 O   0  0  0  0  0  0  0  0  0  0  0  0
   79.3341    6.7817   64.8475 O   0  0  0  0  0  0  0  0  0  0  0  0
   78.7473    8.1168   62.6993 C   0  0  0  0  0  0  0  0  0  0  0  0
   77.4310    8.3022   63.0783 C   0  0  0  0  0  0  0  0  0  0  0  0
   76.7694    7.3315   63.8146 C   0  0  0  0  0  0  0  0  0  0  0  0
   77.9989    5.6254   63.7580 C   0  0  0  0  0  0  0  0  0  0  0  0
   77.0654    5.1470   63.1195 O   0  0  0  0  0  0  0  0  0  0  0  0
   78.6219    5.6823   64.7352 C   0  0  0  0  0  0  0  0  0  0  0  0
   78.2267    5.5113   66.0632 C   0  0  0  0  0  0  0  0  0  0  0  0
   76.9368    5.1361   66.3839 C   0  0  0  0  0  0  0  0  0  0  0  0
   76.0549    4.9250   65.3637 C   0  0  0  0  0  0  0  0  0  0  0  0
   74.7878    4.5552   65.6711 F   0  0  0  0  0  0  0  0  0  0  0  0
   76.3756    5.0893   64.0378 C   0  0  0  0  0  0  0  0  0  0  0  0
   77.6636    5.4912   63.7352 C   0  0  0  0  0  0  0  0  0  0  0  0
   78.0493    5.7835   62.4495 O   0  0  0  0  0  0  0  0  0  0  0  0
   78.2357    5.4634   63.7147 C   0  0  0  0  0  0  0  0  0  0  0  0
   77.0918    6.4317   63.8737 C   0  0  0  0  0  0  0  0  0  0  0  0
   75.9249    5.8630   63.9653 O   0  0  0  0  0  0  0  0  0  0  0  0
   77.2883    7.6338   64.0117 O   0  0  0  0  0  0  0  0  0  0  0  0
  1  2  1  0
  2  3  1  0
  3  4  2  0
  4  5  1  0
  5  6  1  0
  6  7  2  0
  6  8  1  0
  5  9  2  0
  9 10  1  0
 10 11  2  0
  3 11  1  0
  1 12  1  0
 12 13  2  0
 12 14  1  0
 14 15  1  0
 15 16  2  0
 16 17  1  0
 17 18  1  0
 17 19  2  0
 14 20  2  0
 19 20  1  0
 20 21  1  0
 21 22  1  0
 22 23  1  0
 23 24  2  0
 23 25  1  0
M  CHG  2   6   1   8  -1
M  END
$$$$
