
     RDKit          3D

 13 14  0  0  0  0  0  0  0  0999 V2000
  -22.4704   11.8841   21.1621 C   0  0  0  0  0  0  0  0  0  0  0  0
  -22.2349   10.5209   21.5558 N   0  0  0  0  0  0  0  0  0  0  0  0
  -20.1077   11.4130   24.2090 C   0  0  0  0  0  0  0  0  0  0  0  0
  -21.4399   11.9223   23.9112 C   0  0  0  0  0  0  0  0  0  0  0  0
  -22.1238   12.0289   22.7164 C   0  0  0  0  0  0  0  0  0  0  0  0
  -23.4288   12.5671   22.8704 C   0  0  0  0  0  0  0  0  0  0  0  0
  -23.7136   12.9126   24.1647 C   0  0  0  0  0  0  0  0  0  0  0  0
  -22.4074   12.5331   25.2056 S   0  0  0  0  0  0  0  0  0  0  0  0
  -24.3126   12.7485   21.8604 O   0  0  0  0  0  0  0  0  0  0  0  0
  -23.8969   12.0179   20.6938 C   0  0  0  0  0  0  0  0  0  0  0  0
  -22.3933   12.1691   20.4363 C   0  0  0  0  0  0  0  0  0  0  0  0
  -21.6079   11.6377   21.5212 O   0  0  0  0  0  0  0  0  0  0  0  0
  -19.6273   11.3506   25.3396 O   0  0  0  0  0  0  0  0  0  0  0  0
  1  2  1  0
  2  3  1  0
  3  4  1  0
  4  5  2  0
  5  6  1  0
  6  7  2  0
  7  8  1  0
  4  8  1  0
  6  9  1  0
  9 10  1  0
 10 11  1  0
  5 12  1  0
 11 12  1  0
  3 13  2  0
M  END
$$$$
