
     RDKit          3D

 18 20  0  0  0  0  0  0  0  0999 V2000
   28.2458    3.4159   54.9788 N   0  0  0  0  0  0  0  0  0  0  0  0
   25.1161    4.3889   56.3163 C   0  0  0  0  0  0  0  0  0  0  0  0
   25.9214    1.1209   63.9180 C   0  0  0  0  0  0  0  0  0  0  0  0
   23.9140    4.8588   56.3144 N   0  0  0  0  0  0  0  0  0  0  0  0
   24.8156    1.7205   64.5347 C   0  0  0  0  0  0  0  0  0  0  0  0
   27.1029    3.5150   57.1691 C   0  0  0  0  0  0  0  0  0  0  0  0
   25.3864    3.9263   58.8512 C   0  0  0  0  0  0  0  0  0  0  0  0
   25.8161    3.9484   57.5399 C   0  0  0  0  0  0  0  0  0  0  0  0
   27.2370    1.6628   64.0001 N   0  0  0  0  0  0  0  0  0  0  0  0
   26.2876    3.4500   59.8082 C   0  0  0  0  0  0  0  0  0  0  0  0
   27.5790    3.0137   59.4394 C   0  0  0  0  0  0  0  0  0  0  0  0
   28.0020    3.0432   58.1047 C   0  0  0  0  0  0  0  0  0  0  0  0
   26.0176    4.1854   55.3012 N   0  0  0  0  0  0  0  0  0  0  0  0
   27.2207    3.6836   55.7043 C   0  0  0  0  0  0  0  0  0  0  0  0
   23.5291    1.2013   64.3627 C   0  0  0  0  0  0  0  0  0  0  0  0
   23.3283    0.0884   63.5498 C   0  0  0  0  0  0  0  0  0  0  0  0
   24.4115   -0.4997   62.9018 C   0  0  0  0  0  0  0  0  0  0  0  0
   25.6968    0.0209   63.0761 C   0  0  0  0  0  0  0  0  0  0  0  0
  2  4  2  0
  3  5  2  0
  7  8  2  0
  6  8  1  0
  2  8  1  0
  4  9  1  0
  3  9  1  0
  7 10  1  0
 10 11  2  0
  6 12  2  0
 11 12  1  0
  2 13  1  0
 13 14  1  0
  1 14  2  0
  6 14  1  0
  5 15  1  0
 15 16  2  0
 16 17  1  0
 17 18  2  0
  3 18  1  0
M  END
$$$$
