
     RDKit          3D

 29 31  0  0  0  0  0  0  0  0999 V2000
    8.4212    3.4022   17.9754 C   0  0  0  0  0  0  0  0  0  0  0  0
    9.0485    4.4161   16.7803 C   0  0  0  0  0  0  0  0  0  0  0  0
    8.4702    6.3125   12.4027 C   0  0  0  0  0  0  0  0  0  0  0  0
   10.4262    7.3338   13.3679 C   0  0  0  0  0  0  0  0  0  0  0  0
   11.0414    6.0813   13.4247 C   0  0  0  0  0  0  0  0  0  0  0  0
   10.3838    4.9167   12.9894 C   0  0  0  0  0  0  0  0  0  0  0  0
    7.8890    2.7909   11.2754 C   0  0  0  0  0  0  0  0  0  0  0  0
    7.5142    4.0701   16.9657 C   0  0  0  0  0  0  0  0  0  0  0  0
    9.0971    3.1502   15.9287 C   0  0  0  0  0  0  0  0  0  0  0  0
    9.0771    5.0472   12.4636 C   0  0  0  0  0  0  0  0  0  0  0  0
    9.1302    7.4573   12.8692 C   0  0  0  0  0  0  0  0  0  0  0  0
    8.4813    8.8058   12.7648 C   0  0  0  0  0  0  0  0  0  0  0  0
    8.3631    2.9007   13.7357 C   0  0  0  0  0  0  0  0  0  0  0  0
    8.3577    3.1960   15.2306 C   0  0  0  0  0  0  0  0  0  0  0  0
    8.3279    2.0238   17.9001 C   0  0  0  0  0  0  0  0  0  0  0  0
   10.5719    1.8849   17.4255 C   0  0  0  0  0  0  0  0  0  0  0  0
    9.6652    3.9526   17.7002 C   0  0  0  0  0  0  0  0  0  0  0  0
    6.5694    3.5297   11.0116 C   0  0  1  0  0  0  0  0  0  0  0  0
    5.9459    2.4519   11.9082 C   0  0  0  0  0  0  0  0  0  0  0  0
    7.9974    3.2805   11.0329 C   0  0  0  0  0  0  0  0  0  0  0  0
    9.4130    1.2576   17.6482 N   0  0  0  0  0  0  0  0  0  0  0  0
   11.6795    1.0974   17.1905 N   0  0  0  0  0  0  0  0  0  0  0  0
   10.7498    3.2078   17.4520 N   0  0  0  0  0  0  0  0  0  0  0  0
    9.8607    5.3411   17.7000 N   0  0  0  0  0  0  0  0  0  0  0  0
    7.0959    1.6423   11.6146 N   0  0  0  0  0  0  0  0  0  0  0  0
    8.4507    4.4816   17.9722 O   0  0  0  0  0  0  0  0  0  0  0  0
    8.4742    3.9037   11.9999 O   0  0  0  0  0  0  0  0  0  0  0  0
    9.1515    3.0508   10.6913 O   0  0  0  0  0  0  0  0  0  0  0  0
    7.4481    4.4673   10.6750 O   0  0  0  0  0  0  0  0  0  0  0  0
  4  5  2  0
  5  6  1  0
  2  8  1  0
  2  9  1  0
  3 10  1  0
  6 10  2  0
  3 11  2  0
  4 11  1  0
 11 12  1  0
 13 14  1  0
 14 15  1  0
  1 15  1  0
  1 17  2  0
  7 18  1  0
 18 19  1  0
 18 20  1  1
 15 21  2  0
 16 21  1  0
 16 22  1  0
 16 23  2  0
 17 23  1  0
 17 24  1  0
  6 25  1  0
  7 25  1  0
 19 25  1  0
  1 26  1  0
  8 26  1  0
  9 27  1  0
 10 27  1  0
 20 28  2  0
 20 29  1  0
M  END
$$$$
