
     RDKit          3D

 32 35  0  0  0  0  0  0  0  0999 V2000
   33.4573  106.4709   57.2729 C   0  0  0  0  0  0  0  0  0  0  0  0
   32.3331  105.6948   55.1822 C   0  0  0  0  0  0  0  0  0  0  0  0
   31.3653  105.9826   54.2955 C   0  0  0  0  0  0  0  0  0  0  0  0
   31.9565  107.1676   58.8965 C   0  0  0  0  0  0  0  0  0  0  0  0
   37.2263  109.5597   59.7254 C   0  0  0  0  0  0  0  0  0  0  0  0
   36.2320  110.0793   54.1519 C   0  0  0  0  0  0  0  0  0  0  0  0
   36.4384  111.8050   55.9279 C   0  0  0  0  0  0  0  0  0  0  0  0
   32.0175  107.7801   60.1574 C   0  0  0  0  0  0  0  0  0  0  0  0
   31.0552  106.1089   58.7130 C   0  0  0  0  0  0  0  0  0  0  0  0
   36.7231  107.0578   54.0008 C   0  0  0  0  0  0  0  0  0  0  0  0
   35.5240  110.6155   56.7141 C   0  0  0  0  0  0  0  0  0  0  0  0
   35.4928  109.8776   57.8995 C   0  0  0  0  0  0  0  0  0  0  0  0
   31.8005  107.7050   56.4659 C   0  0  0  0  0  0  0  0  0  0  0  0
   32.1993  108.3335   57.5515 N   0  0  0  0  0  0  0  0  0  0  0  0
   33.9515  109.0184   58.1874 C   0  0  0  0  0  0  0  0  0  0  0  0
   32.5429  106.5534   56.2538 N   0  0  0  0  0  0  0  0  0  0  0  0
   34.8854  110.5950   56.0098 C   0  0  0  0  0  0  0  0  0  0  0  0
   33.2329  107.5777   58.0661 C   0  0  0  0  0  0  0  0  0  0  0  0
   30.7750  108.0081   55.5220 C   0  0  0  0  0  0  0  0  0  0  0  0
   36.7333  110.0859   58.4700 N   0  0  0  0  0  0  0  0  0  0  0  0
   37.5604  110.8417   57.7210 N   0  0  0  0  0  0  0  0  0  0  0  0
   36.8328  111.1382   56.6490 C   0  0  0  0  0  0  0  0  0  0  0  0
   30.5498  107.1926   54.4670 C   0  0  0  0  0  0  0  0  0  0  0  0
   34.2105  107.7147   57.8056 N   0  0  0  0  0  0  0  0  0  0  0  0
   35.6354  110.7577   55.3156 N   0  0  0  0  0  0  0  0  0  0  0  0
   33.8472  109.3753   59.3568 O   0  0  0  0  0  0  0  0  0  0  0  0
   35.4945  110.8588   57.0463 O   0  0  0  0  0  0  0  0  0  0  0  0
   36.3660  106.1317   55.0812 N   0  0  0  0  0  0  0  0  0  0  0  0
   37.5351  105.4699   55.6537 C   0  0  0  0  0  0  0  0  0  0  0  0
   30.2379  105.6767   59.7629 C   0  0  0  0  0  0  0  0  0  0  0  0
   31.2011  107.3491   61.2064 C   0  0  0  0  0  0  0  0  0  0  0  0
   30.3110  106.2970   61.0081 C   0  0  0  0  0  0  0  0  0  0  0  0
  2  3  2  0
  4  8  1  0
  4  9  2  0
  6 10  1  0
 11 12  2  0
 13 14  2  0
 12 15  1  0
 13 16  1  0
  1 16  1  0
  2 16  1  0
 11 17  1  0
 14 18  1  0
  1 18  2  0
  4 18  1  0
 13 19  1  0
 12 20  1  0
  5 20  1  0
 20 21  1  0
 11 22  1  0
 21 22  2  0
 19 23  2  0
  3 23  1  0
 15 24  1  0
 23 24  1  0
 17 25  1  0
  7 25  1  0
  6 25  1  0
 15 26  2  0
 17 27  2  0
 10 28  1  0
 28 29  1  0
  9 30  1  0
  8 31  2  0
 30 32  2  0
 31 32  1  0
M  END
$$$$
