
     RDKit          3D

 10 10  0  0  0  0  0  0  0  0999 V2000
  -14.0529  -52.2007   -6.4221 O   0  0  0  0  0  0  0  0  0  0  0  0
  -13.0129  -52.7163   -6.7933 C   0  0  0  0  0  0  0  0  0  0  0  0
  -12.1952  -53.3239   -5.9117 O   0  0  0  0  0  0  0  0  0  0  0  0
  -12.4838  -52.7936   -8.1967 C   0  0  0  0  0  0  0  0  0  0  0  0
  -13.2219  -53.7752   -6.9371 C   0  0  0  0  0  0  0  0  0  0  0  0
  -12.1786  -53.3292   -5.9739 C   0  0  0  0  0  0  0  0  0  0  0  0
  -11.3055  -54.0292   -5.1686 C   0  0  0  0  0  0  0  0  0  0  0  0
  -10.5158  -53.1752   -4.4445 N   0  0  0  0  0  0  0  0  0  0  0  0
  -10.9013  -51.9689   -4.7888 C   0  0  0  0  0  0  0  0  0  0  0  0
  -11.9077  -52.0088   -5.7111 N   0  0  0  0  0  0  0  0  0  0  0  0
  1  2  2  0
  2  3  1  0
  2  4  1  0
  4  5  1  0
  5  6  1  0
  6  7  2  0
  7  8  1  0
  8  9  2  0
  9 10  1  0
  6 10  1  0
M  END
$$$$
