
     RDKit          3D

 31 34  0  0  0  0  0  0  0  0999 V2000
    3.0511  -12.8998   89.0439 C   0  0  0  0  0  0  0  0  0  0  0  0
    2.4801  -11.4525   85.4566 C   0  0  0  0  0  0  0  0  0  0  0  0
    2.8119  -12.3609   86.4598 C   0  0  0  0  0  0  0  0  0  0  0  0
    3.0940  -10.7000   87.9941 C   0  0  0  0  0  0  0  0  0  0  0  0
    3.5749  -12.0205   88.0982 C   0  0  0  0  0  0  0  0  0  0  0  0
    1.1608  -10.9488   85.5985 C   0  0  0  0  0  0  0  0  0  0  0  0
    0.2998  -11.3620   86.6784 C   0  0  0  0  0  0  0  0  0  0  0  0
    3.8490  -13.7613   87.7366 N   0  0  0  0  0  0  0  0  0  0  0  0
    0.6652  -12.2837   87.6873 C   0  0  0  0  0  0  0  0  0  0  0  0
    1.9688  -12.7826   87.5509 C   0  0  0  0  0  0  0  0  0  0  0  0
    1.5388  -13.3069   90.8007 F   0  0  0  0  0  0  0  0  0  0  0  0
    2.0435  -12.4632   89.8907 C   0  0  0  0  0  0  0  0  0  0  0  0
    1.5452  -11.1665   89.8141 C   0  0  0  0  0  0  0  0  0  0  0  0
    2.0630  -10.2767   88.8676 C   0  0  0  0  0  0  0  0  0  0  0  0
    2.6408  -13.6555   88.3179 N   0  0  0  0  0  0  0  0  0  0  0  0
    4.0084  -13.0212   86.5942 C   0  0  0  0  0  0  0  0  0  0  0  0
    5.7086  -13.7799   85.1980 C   0  0  0  0  0  0  0  0  0  0  0  0
    6.4885  -14.1250   86.3917 N   0  0  0  0  0  0  0  0  0  0  0  0
    6.8548  -12.9795   87.2156 C   0  0  0  0  0  0  0  0  0  0  0  0
    5.8808  -15.1816   87.1944 C   0  0  0  0  0  0  0  0  0  0  0  0
    1.6302   -8.9844   88.7062 O   0  0  0  0  0  0  0  0  0  0  0  0
    2.1033  -10.8967   89.1740 C   0  0  0  0  0  0  0  0  0  0  0  0
    0.6606  -12.7657   90.6035 C   0  0  0  0  0  0  0  0  0  0  0  0
    1.5142  -11.5871   90.9307 C   0  0  0  0  0  0  0  0  0  0  0  0
    1.0866  -10.2493   91.1546 C   0  0  0  0  0  0  0  0  0  0  0  0
   -0.2969   -9.7123   91.1253 C   0  0  0  0  0  0  0  0  0  0  0  0
    2.1148   -9.4369   91.4147 N   0  0  0  0  0  0  0  0  0  0  0  0
    3.1903  -10.2397   91.3829 N   0  0  0  0  0  0  0  0  0  0  0  0
    4.4948   -9.6765   91.6431 C   0  0  0  0  0  0  0  0  0  0  0  0
    2.8914  -11.5427   91.0773 C   0  0  0  0  0  0  0  0  0  0  0  0
    3.9235  -12.6039   90.9634 C   0  0  0  0  0  0  0  0  0  0  0  0
  2  3  1  0
  1  5  2  0
  4  5  1  0
  4  6  1  0
  2  6  2  0
  6  7  1  0
  7  9  2  0
  3 10  1  0
  9 10  1  0
 11 12  1  0
  1 12  1  0
 12 13  2  0
 13 14  1  0
  4 14  2  0
 10 15  2  0
  8 15  1  0
  3 16  2  0
  8 16  1  0
 16 17  1  0
 17 18  1  0
 18 19  1  0
 18 20  1  0
 14 21  1  0
 21 22  1  0
 22 23  1  0
 23 24  1  0
 24 25  1  0
 25 26  1  0
 25 27  2  0
 27 28  1  0
 28 29  1  0
 24 30  2  0
 28 30  1  0
 30 31  1  0
M  END
$$$$
