
     RDKit          3D

 40 42  0  0  0  0  0  0  0  0999 V2000
   92.7740    8.9267   29.9792 C   0  0  1  0  0  0  0  0  0  0  0  0
   91.8104    9.4204   28.8827 C   0  0  1  0  0  0  0  0  0  0  0  0
   90.8473    8.3113   28.4383 C   0  0  2  0  0  0  0  0  0  0  0  0
   91.3455    6.9082   28.8248 C   0  0  1  0  0  0  0  0  0  0  0  0
   91.6753    6.8385   30.3342 C   0  0  1  0  0  0  0  0  0  0  0  0
   92.9734    6.7418   28.9810 C   0  0  0  0  0  0  0  0  0  0  0  0
   90.3266    5.9456   28.5105 O   0  0  0  0  0  0  0  0  0  0  0  0
   93.2901   10.0713   30.6666 O   0  0  0  0  0  0  0  0  0  0  0  0
   92.0668    8.0998   30.9019 O   0  0  0  0  0  0  0  0  0  0  0  0
   94.0089    7.6233   28.4577 N   0  0  0  0  0  0  0  0  0  0  0  0
   98.2478    2.9782   31.0605 C   0  0  2  0  0  0  0  0  0  0  0  0
   99.0345    1.7491   31.2060 N   0  0  0  0  0  0  0  0  0  0  0  0
   97.4739    3.2616   32.3585 C   0  0  0  0  0  0  0  0  0  0  0  0
   96.0542    2.6912   32.3434 C   0  0  2  0  0  0  0  0  0  0  0  0
   96.1362    1.2194   32.2667 N   0  0  0  0  0  0  0  0  0  0  0  0
   95.2353    3.2939   31.1728 C   0  0  2  0  0  0  0  0  0  0  0  0
   96.0929    3.7610   29.9829 C   0  0  2  0  0  0  0  0  0  0  0  0
   95.2735    3.7577   28.8015 O   0  0  0  0  0  0  0  0  0  0  0  0
   97.3320    2.8747   29.8088 C   0  0  1  0  0  0  0  0  0  0  0  0
   96.9601    9.1441   31.2663 O   0  0  0  0  0  0  0  0  0  0  0  0
   96.5540    9.8602   30.1006 C   0  0  2  0  0  0  0  0  0  0  0  0
   97.4197   11.1328   29.9980 C   0  0  2  0  0  0  0  0  0  0  0  0
   97.4122   11.8461   31.2487 O   0  0  0  0  0  0  0  0  0  0  0  0
   96.9329   12.0731   28.8782 C   0  0  1  0  0  0  0  0  0  0  0  0
   97.8220   12.0267   27.6879 N   0  0  0  0  0  0  0  0  0  0  0  0
   95.4825   11.7564   28.4467 C   0  0  2  0  0  0  0  0  0  0  0  0
   94.9384   12.9095   27.7976 O   0  0  0  0  0  0  0  0  0  0  0  0
   94.6810   11.3383   29.6857 C   0  0  1  0  0  0  0  0  0  0  0  0
   95.1445   10.0831   30.2244 O   0  0  0  0  0  0  0  0  0  0  0  0
   94.9319   11.4559   29.5749 C   0  0  0  0  0  0  0  0  0  0  0  0
   96.1854   11.6217   30.2388 O   0  0  0  0  0  0  0  0  0  0  0  0
   91.0161   10.5320   29.3550 O   0  0  0  0  0  0  0  0  0  0  0  0
   90.6942    8.3935   27.0097 O   0  0  0  0  0  0  0  0  0  0  0  0
   96.8429    9.3082   27.6235 N   0  0  0  0  0  0  0  0  0  0  0  0
   97.0960    7.6489   27.9577 C   0  0  0  0  0  0  0  0  0  0  0  0
   97.6415    7.6623   26.8513 O   0  0  0  0  0  0  0  0  0  0  0  0
   96.0776    6.9540   28.3621 C   0  0  2  0  0  0  0  0  0  0  0  0
   95.2410    7.6525   27.2843 C   0  0  0  0  0  0  0  0  0  0  0  0
   97.3365    9.5441   28.9792 C   0  0  0  0  0  0  0  0  0  0  0  0
   96.0670    7.7904   29.5292 O   0  0  0  0  0  0  0  0  0  0  0  0
  1  2  1  0
  2  3  1  0
  3  4  1  0
  4  5  1  0
  5  6  1  6
  4  7  1  1
  1  8  1  1
  5  9  1  0
  1  9  1  0
  6 10  1  0
 11 12  1  1
 11 13  1  0
 13 14  1  0
 14 15  1  6
 14 16  1  0
 16  8  1  1
 16 17  1  0
 17 18  1  6
 11 19  1  0
 17 19  1  0
 19 20  1  6
 21 20  1  1
 21 22  1  0
 22 23  1  1
 22 24  1  0
 24 25  1  6
 24 26  1  0
 26 27  1  1
 26 28  1  0
 21 29  1  0
 28 29  1  0
 28 30  1  6
 30 31  1  0
  2 32  1  1
  3 33  1  6
 12 35  1  0
 35 36  2  0
 35 37  1  0
 37 38  1  0
 38 39  1  0
 34 39  1  0
 37 40  1  1
M  END
$$$$
