
     RDKit          3D

 28 30  0  0  0  0  0  0  0  0999 V2000
    2.3175   -9.7260   27.3357 P   0  0  2  0  0  0  0  0  0  0  0  0
    3.6376   -9.1994   26.8926 O   0  0  0  0  0  0  0  0  0  0  0  0
    1.1077   -8.7417   26.9731 O   0  0  0  0  0  0  0  0  0  0  0  0
    2.1891   -9.8409   28.9167 O   0  0  0  0  0  0  0  0  0  0  0  0
    1.8946  -11.1322   26.7518 O   0  0  0  0  0  0  0  0  0  0  0  0
    3.0337  -10.7352   24.8561 P   0  0  1  0  0  0  0  0  0  0  0  0
    3.1594  -11.7636   23.7851 O   0  0  0  0  0  0  0  0  0  0  0  0
    2.7050   -9.2633   24.3126 O   0  0  0  0  0  0  0  0  0  0  0  0
    4.3603  -10.5095   25.7368 O   0  0  0  0  0  0  0  0  0  0  0  0
    5.3910  -11.6960   22.4369 C   0  0  0  0  0  0  0  0  0  0  0  0
    5.1180  -10.4346   23.2639 C   0  0  1  0  0  0  0  0  0  0  0  0
    4.1338  -10.7282   24.2831 O   0  0  0  0  0  0  0  0  0  0  0  0
    6.3622   -9.9530   24.0023 C   0  0  1  0  0  0  0  0  0  0  0  0
    6.2572   -8.5561   24.3362 O   0  0  0  0  0  0  0  0  0  0  0  0
    6.3011  -10.7408   25.3012 C   0  0  1  0  0  0  0  0  0  0  0  0
    7.0876  -10.1057   26.3054 O   0  0  0  0  0  0  0  0  0  0  0  0
    4.7921  -10.7483   25.5739 C   0  0  2  0  0  0  0  0  0  0  0  0
    4.8818  -12.9230   22.5548 N   0  0  0  0  0  0  0  0  0  0  0  0
    4.4026  -12.8220   21.2720 C   0  0  0  0  0  0  0  0  0  0  0  0
    3.1965  -12.2892   21.2312 N   0  0  0  0  0  0  0  0  0  0  0  0
    2.9072  -12.0065   22.5412 C   0  0  0  0  0  0  0  0  0  0  0  0
    1.7399  -11.3964   23.1393 C   0  0  0  0  0  0  0  0  0  0  0  0
    0.7516  -10.9874   22.5373 O   0  0  0  0  0  0  0  0  0  0  0  0
    1.8438  -11.3096   24.5215 N   0  0  0  0  0  0  0  0  0  0  0  0
    2.9419  -11.7184   25.2508 C   0  0  0  0  0  0  0  0  0  0  0  0
    2.8699  -11.5396   26.5936 N   0  0  0  0  0  0  0  0  0  0  0  0
    4.0070  -12.2581   24.7236 N   0  0  0  0  0  0  0  0  0  0  0  0
    3.9335  -12.3825   23.3774 C   0  0  0  0  0  0  0  0  0  0  0  0
  1  2  2  0
  1  3  1  6
  1  4  1  0
  1  5  1  0
  5  6  1  0
  6  7  2  0
  6  8  1  6
  6  9  1  0
  9 10  1  0
 11 10  1  1
 11 12  1  0
 11 13  1  0
 13 14  1  1
 13 15  1  0
 15 16  1  1
 12 17  1  0
 15 17  1  0
 17 18  1  6
 18 19  1  0
 19 20  2  0
 20 21  1  0
 21 22  1  0
 22 23  2  0
 22 24  1  0
 24 25  1  0
 25 26  1  0
 25 27  2  0
 18 28  1  0
 21 28  2  0
 27 28  1  0
M  END
$$$$
