
     RDKit          3D

 21 22  0  0  0  0  0  0  0  0999 V2000
   -8.3684   31.2588   17.0903 C   0  0  0  0  0  0  0  0  0  0  0  0
   -9.3990   31.5657   16.2830 N   0  0  0  0  0  0  0  0  0  0  0  0
  -10.5567   31.8324   16.8859 C   0  0  0  0  0  0  0  0  0  0  0  0
  -11.6306   32.1534   16.0827 N   0  0  0  0  0  0  0  0  0  0  0  0
  -10.7405   31.8624   18.2079 N   0  0  0  0  0  0  0  0  0  0  0  0
   -9.6855   31.5671   18.9806 C   0  0  0  0  0  0  0  0  0  0  0  0
   -9.9395   31.5835   20.3533 N   0  0  0  0  0  0  0  0  0  0  0  0
   -8.4426   31.2453   18.4689 C   0  0  0  0  0  0  0  0  0  0  0  0
   -7.2548   30.8589   19.3004 C   0  0  0  0  0  0  0  0  0  0  0  0
   -6.3841   24.5678   16.0350 C   0  0  0  0  0  0  0  0  0  0  0  0
   -5.7542   24.0873   17.1965 C   0  0  0  0  0  0  0  0  0  0  0  0
   -6.1731   24.5030   18.4621 C   0  0  0  0  0  0  0  0  0  0  0  0
  -10.7012   28.4375   17.2968 O   0  0  0  0  0  0  0  0  0  0  0  0
  -10.1829   27.6354   18.3491 C   0  0  0  0  0  0  0  0  0  0  0  0
   -7.2363   25.4168   18.5552 C   0  0  0  0  0  0  0  0  0  0  0  0
   -5.8834   24.8632   19.6538 O   0  0  0  0  0  0  0  0  0  0  0  0
   -7.1933   24.3042   19.5730 C   0  0  0  0  0  0  0  0  0  0  0  0
   -7.8954   25.8928   17.4086 C   0  0  0  0  0  0  0  0  0  0  0  0
   -8.9840   24.6601   17.5195 O   0  0  0  0  0  0  0  0  0  0  0  0
   -9.0973   24.0525   18.7982 C   0  0  0  0  0  0  0  0  0  0  0  0
   -7.4545   25.4701   16.1520 C   0  0  0  0  0  0  0  0  0  0  0  0
  1  2  2  0
  2  3  1  0
  3  4  1  0
  3  5  2  0
  5  6  1  0
  6  7  1  0
  1  8  1  0
  6  8  2  0
  8  9  1  0
  9 10  1  0
 10 11  2  0
 11 12  1  0
 12 13  1  0
 13 14  1  0
 12 15  2  0
 15 16  1  0
 16 17  1  0
 15 18  1  0
 18 19  1  0
 19 20  1  0
 10 21  1  0
 18 21  2  0
M  END
$$$$
