
     RDKit          3D

 25 26  0  0  0  0  0  0  0  0999 V2000
   80.7916    7.0185   62.0043 N   0  0  0  0  0  0  0  0  0  0  0  0
   78.7479    3.6328   69.1660 C   0  0  0  0  0  0  0  0  0  0  0  0
   79.7151    4.7525   68.8665 C   0  0  0  0  0  0  0  0  0  0  0  0
   79.5039    5.6059   67.7756 C   0  0  0  0  0  0  0  0  0  0  0  0
   80.3704    6.6845   67.5609 C   0  0  0  0  0  0  0  0  0  0  0  0
   78.9866    8.6231   63.3403 N   0  0  0  0  0  0  0  0  0  0  0  0
   79.3858    8.0566   64.3728 O   0  0  0  0  0  0  0  0  0  0  0  0
   77.7995    8.8401   63.0637 O   0  0  0  0  0  0  0  0  0  0  0  0
   81.4702    6.9103   68.3942 C   0  0  0  0  0  0  0  0  0  0  0  0
   81.6856    6.0560   69.4743 C   0  0  0  0  0  0  0  0  0  0  0  0
   80.8078    4.9943   69.7149 C   0  0  0  0  0  0  0  0  0  0  0  0
   80.6663    6.7231   63.3416 C   0  0  0  0  0  0  0  0  0  0  0  0
   79.8463    7.2796   64.0672 O   0  0  0  0  0  0  0  0  0  0  0  0
   80.6602    7.1211   63.5325 C   0  0  0  0  0  0  0  0  0  0  0  0
   80.1783    8.3997   63.1944 C   0  0  0  0  0  0  0  0  0  0  0  0
   79.1372    8.9869   63.9172 C   0  0  0  0  0  0  0  0  0  0  0  0
   78.5750    8.2997   64.9839 C   0  0  0  0  0  0  0  0  0  0  0  0
   77.5856    8.8660   65.6863 F   0  0  0  0  0  0  0  0  0  0  0  0
   79.0247    7.0335   65.3367 C   0  0  0  0  0  0  0  0  0  0  0  0
   80.0529    6.4347   64.5998 C   0  0  0  0  0  0  0  0  0  0  0  0
   80.5011    5.1976   64.9825 O   0  0  0  0  0  0  0  0  0  0  0  0
   81.1222    5.4590   66.3568 C   0  0  0  0  0  0  0  0  0  0  0  0
   80.5072    5.1777   65.0016 C   0  0  0  0  0  0  0  0  0  0  0  0
   79.4392    4.6236   64.7901 O   0  0  0  0  0  0  0  0  0  0  0  0
   81.2984    5.5770   63.9850 O   0  0  0  0  0  0  0  0  0  0  0  0
  1  2  1  0
  2  3  1  0
  3  4  2  0
  4  5  1  0
  5  6  1  0
  6  7  2  0
  6  8  1  0
  5  9  2  0
  9 10  1  0
 10 11  2  0
  3 11  1  0
  1 12  1  0
 12 13  2  0
 12 14  1  0
 14 15  1  0
 15 16  2  0
 16 17  1  0
 17 18  1  0
 17 19  2  0
 14 20  2  0
 19 20  1  0
 20 21  1  0
 21 22  1  0
 22 23  1  0
 23 24  2  0
 23 25  1  0
M  CHG  2   6   1   8  -1
M  END
$$$$
