
     RDKit          3D

 13 14  0  0  0  0  0  0  0  0999 V2000
  -24.8859   10.5187   21.5954 C   0  0  0  0  0  0  0  0  0  0  0  0
  -24.6975   11.9572   21.4256 N   0  0  0  0  0  0  0  0  0  0  0  0
  -23.2282   13.0050   23.2414 C   0  0  0  0  0  0  0  0  0  0  0  0
  -21.9261   12.5344   23.7465 C   0  0  0  0  0  0  0  0  0  0  0  0
  -20.9460   11.6651   23.1409 C   0  0  0  0  0  0  0  0  0  0  0  0
  -19.8378   11.4062   24.0123 C   0  0  0  0  0  0  0  0  0  0  0  0
  -19.9244   12.0887   25.1980 C   0  0  0  0  0  0  0  0  0  0  0  0
  -21.4247   12.9666   25.3389 S   0  0  0  0  0  0  0  0  0  0  0  0
  -18.8165   10.5360   23.6773 O   0  0  0  0  0  0  0  0  0  0  0  0
  -19.1994    9.6743   22.5728 C   0  0  0  0  0  0  0  0  0  0  0  0
  -19.8458   10.4332   21.4653 C   0  0  0  0  0  0  0  0  0  0  0  0
  -21.0677   11.0987   21.8775 O   0  0  0  0  0  0  0  0  0  0  0  0
  -23.9920   13.6619   23.9711 O   0  0  0  0  0  0  0  0  0  0  0  0
  1  2  1  0
  2  3  1  0
  3  4  1  0
  4  5  2  0
  5  6  1  0
  6  7  2  0
  7  8  1  0
  4  8  1  0
  6  9  1  0
  9 10  1  0
 10 11  1  0
  5 12  1  0
 11 12  1  0
  3 13  2  0
M  END
$$$$
