
     RDKit          3D

 18 20  0  0  0  0  0  0  0  0999 V2000
   23.2021    5.9189   57.1390 N   0  0  0  0  0  0  0  0  0  0  0  0
   25.8066    3.9785   55.7845 C   0  0  0  0  0  0  0  0  0  0  0  0
   26.5246    0.8570   64.1084 C   0  0  0  0  0  0  0  0  0  0  0  0
   26.5458    3.5463   54.8533 N   0  0  0  0  0  0  0  0  0  0  0  0
   25.9042   -0.3589   63.8505 C   0  0  0  0  0  0  0  0  0  0  0  0
   24.8335    4.2012   57.8615 C   0  0  0  0  0  0  0  0  0  0  0  0
   26.6794    2.6427   57.8562 C   0  0  0  0  0  0  0  0  0  0  0  0
   25.8409    3.5300   57.1823 C   0  0  0  0  0  0  0  0  0  0  0  0
   26.7193    1.2678   65.4394 N   0  0  0  0  0  0  0  0  0  0  0  0
   26.4782    2.4414   59.2186 C   0  0  0  0  0  0  0  0  0  0  0  0
   25.4560    3.1026   59.8955 C   0  0  0  0  0  0  0  0  0  0  0  0
   24.6247    3.9841   59.2261 C   0  0  0  0  0  0  0  0  0  0  0  0
   24.7810    4.9485   55.7092 N   0  0  0  0  0  0  0  0  0  0  0  0
   24.1949    5.0839   56.9034 C   0  0  0  0  0  0  0  0  0  0  0  0
   25.7311   -0.7937   62.5467 C   0  0  0  0  0  0  0  0  0  0  0  0
   26.1414   -0.0088   61.4933 C   0  0  0  0  0  0  0  0  0  0  0  0
   26.7132    1.2190   61.7382 C   0  0  0  0  0  0  0  0  0  0  0  0
   26.9282    1.6497   63.0397 C   0  0  0  0  0  0  0  0  0  0  0  0
  2  4  2  0
  3  5  2  0
  7  8  2  0
  6  8  1  0
  2  8  1  0
  4  9  1  0
  3  9  1  0
  7 10  1  0
 10 11  2  0
  6 12  2  0
 11 12  1  0
  2 13  1  0
 13 14  1  0
  1 14  2  0
  6 14  1  0
  5 15  1  0
 15 16  2  0
 16 17  1  0
 17 18  2  0
  3 18  1  0
M  END
$$$$
