
     RDKit          3D

 29 31  0  0  0  0  0  0  0  0999 V2000
    8.5315    4.1192   17.3170 C   0  0  0  0  0  0  0  0  0  0  0  0
    9.4783    4.6069   17.5524 C   0  0  0  0  0  0  0  0  0  0  0  0
   10.3135    4.1154   12.6698 C   0  0  0  0  0  0  0  0  0  0  0  0
   10.5814    4.7379   10.3931 C   0  0  0  0  0  0  0  0  0  0  0  0
    9.5740    5.6802   10.5402 C   0  0  0  0  0  0  0  0  0  0  0  0
    8.9077    5.8452   11.7443 C   0  0  0  0  0  0  0  0  0  0  0  0
    6.0711    2.2775   11.6408 C   0  0  0  0  0  0  0  0  0  0  0  0
    8.9612    3.2509   17.9335 C   0  0  0  0  0  0  0  0  0  0  0  0
    8.4270    3.5094   17.6055 C   0  0  0  0  0  0  0  0  0  0  0  0
    9.3075    5.0441   12.8207 C   0  0  0  0  0  0  0  0  0  0  0  0
   10.9706    3.9411   11.4504 C   0  0  0  0  0  0  0  0  0  0  0  0
   12.0849    2.9189   11.2971 C   0  0  0  0  0  0  0  0  0  0  0  0
    7.5125    1.6429   14.3868 C   0  0  0  0  0  0  0  0  0  0  0  0
    7.4309    2.9067   15.2748 C   0  0  0  0  0  0  0  0  0  0  0  0
    7.7961    3.0665   16.8688 C   0  0  0  0  0  0  0  0  0  0  0  0
    8.5093    3.4744   14.7184 C   0  0  0  0  0  0  0  0  0  0  0  0
    9.2707    4.8801   16.3655 C   0  0  0  0  0  0  0  0  0  0  0  0
    7.3470    3.0072   12.1163 C   0  0  2  0  0  0  0  0  0  0  0  0
    7.2740    3.8744   10.8142 C   0  0  0  0  0  0  0  0  0  0  0  0
    7.9120    2.8100   12.8612 C   0  0  0  0  0  0  0  0  0  0  0  0
    7.7802    2.7464   15.5575 N   0  0  0  0  0  0  0  0  0  0  0  0
    8.4784    3.1039   13.4127 N   0  0  0  0  0  0  0  0  0  0  0  0
    9.2396    4.5337   15.0649 N   0  0  0  0  0  0  0  0  0  0  0  0
    9.9994    5.9319   16.7157 N   0  0  0  0  0  0  0  0  0  0  0  0
    6.0818    3.1030   10.3833 N   0  0  0  0  0  0  0  0  0  0  0  0
    8.5603    4.4236   18.6925 O   0  0  0  0  0  0  0  0  0  0  0  0
    8.6290    5.1966   14.0192 O   0  0  0  0  0  0  0  0  0  0  0  0
    8.6574    2.2366   13.6739 O   0  0  0  0  0  0  0  0  0  0  0  0
    7.4217    3.9755   13.0022 O   0  0  0  0  0  0  0  0  0  0  0  0
  4  5  2  0
  5  6  1  0
  2  8  1  0
  2  9  1  0
  3 10  1  0
  6 10  2  0
  3 11  2  0
  4 11  1  0
 11 12  1  0
 13 14  1  0
 14 15  1  0
  1 15  1  0
  1 17  2  0
  7 18  1  0
 18 19  1  0
 18 20  1  1
 15 21  2  0
 16 21  1  0
 16 22  1  0
 16 23  2  0
 17 23  1  0
 17 24  1  0
  6 25  1  0
  7 25  1  0
 19 25  1  0
  1 26  1  0
  8 26  1  0
  9 27  1  0
 10 27  1  0
 20 28  2  0
 20 29  1  0
M  END
$$$$
