
     RDKit          3D

 32 35  0  0  0  0  0  0  0  0999 V2000
   30.1273  108.7096   56.1388 C   0  0  0  0  0  0  0  0  0  0  0  0
   32.4407  108.2213   55.3015 C   0  0  0  0  0  0  0  0  0  0  0  0
   33.5516  107.4955   55.4926 C   0  0  0  0  0  0  0  0  0  0  0  0
   29.5154  108.1265   57.6254 C   0  0  0  0  0  0  0  0  0  0  0  0
   33.9017  110.7912   56.0575 C   0  0  0  0  0  0  0  0  0  0  0  0
   36.1819  109.1655   56.2769 C   0  0  0  0  0  0  0  0  0  0  0  0
   36.8363  111.5626   56.2848 C   0  0  0  0  0  0  0  0  0  0  0  0
   28.6205  108.1591   56.5613 C   0  0  0  0  0  0  0  0  0  0  0  0
   30.4563  109.1444   57.7302 C   0  0  0  0  0  0  0  0  0  0  0  0
   36.0716  105.9282   55.0219 C   0  0  0  0  0  0  0  0  0  0  0  0
   35.4265  108.8121   58.7071 C   0  0  0  0  0  0  0  0  0  0  0  0
   35.5800  109.6902   57.6267 C   0  0  0  0  0  0  0  0  0  0  0  0
   31.3598  107.1764   57.1885 C   0  0  0  0  0  0  0  0  0  0  0  0
   30.2029  107.2142   57.8446 N   0  0  0  0  0  0  0  0  0  0  0  0
   34.7079  109.3163   57.1429 C   0  0  0  0  0  0  0  0  0  0  0  0
   31.3493  108.0741   56.1281 N   0  0  0  0  0  0  0  0  0  0  0  0
   35.2092  110.1428   56.2905 C   0  0  0  0  0  0  0  0  0  0  0  0
   29.4282  108.1616   57.1811 C   0  0  0  0  0  0  0  0  0  0  0  0
   32.5214  106.4008   57.4162 C   0  0  0  0  0  0  0  0  0  0  0  0
   34.3315  109.9355   57.1570 N   0  0  0  0  0  0  0  0  0  0  0  0
   33.3781  109.2640   57.8686 N   0  0  0  0  0  0  0  0  0  0  0  0
   34.0439  108.5869   58.7864 C   0  0  0  0  0  0  0  0  0  0  0  0
   33.5998  106.5419   56.5837 C   0  0  0  0  0  0  0  0  0  0  0  0
   33.9458  108.3926   57.8107 N   0  0  0  0  0  0  0  0  0  0  0  0
   35.9318  110.5270   55.8019 N   0  0  0  0  0  0  0  0  0  0  0  0
   34.3991  109.7586   56.0404 O   0  0  0  0  0  0  0  0  0  0  0  0
   36.0953  109.4433   55.8056 O   0  0  0  0  0  0  0  0  0  0  0  0
   37.3154  106.5187   55.6328 N   0  0  0  0  0  0  0  0  0  0  0  0
   37.7327  107.8360   55.1398 C   0  0  0  0  0  0  0  0  0  0  0  0
   30.5549  110.1157   56.7496 C   0  0  0  0  0  0  0  0  0  0  0  0
   28.7220  109.1376   55.5855 C   0  0  0  0  0  0  0  0  0  0  0  0
   29.6875  110.1173   55.6825 C   0  0  0  0  0  0  0  0  0  0  0  0
  2  3  2  0
  4  8  1  0
  4  9  2  0
  6 10  1  0
 11 12  2  0
 13 14  2  0
 12 15  1  0
 13 16  1  0
  1 16  1  0
  2 16  1  0
 11 17  1  0
 14 18  1  0
  1 18  2  0
  4 18  1  0
 13 19  1  0
 12 20  1  0
  5 20  1  0
 20 21  1  0
 11 22  1  0
 21 22  2  0
 19 23  2  0
  3 23  1  0
 15 24  1  0
 23 24  1  0
 17 25  1  0
  7 25  1  0
  6 25  1  0
 15 26  2  0
 17 27  2  0
 10 28  1  0
 28 29  1  0
  9 30  1  0
  8 31  2  0
 30 32  2  0
 31 32  1  0
M  END
$$$$
