
     RDKit          3D

 10 10  0  0  0  0  0  0  0  0999 V2000
  -14.2111  -51.5757   -7.1807 O   0  0  0  0  0  0  0  0  0  0  0  0
  -13.2990  -52.2454   -6.6152 C   0  0  0  0  0  0  0  0  0  0  0  0
  -13.5675  -53.2365   -5.8724 O   0  0  0  0  0  0  0  0  0  0  0  0
  -11.8571  -51.8255   -6.8175 C   0  0  0  0  0  0  0  0  0  0  0  0
  -12.9787  -53.5650   -4.4422 C   0  0  0  0  0  0  0  0  0  0  0  0
  -12.2295  -53.8354   -5.7410 C   0  0  0  0  0  0  0  0  0  0  0  0
  -12.0446  -52.9762   -6.7929 C   0  0  0  0  0  0  0  0  0  0  0  0
  -11.3207  -53.6411   -7.6972 N   0  0  0  0  0  0  0  0  0  0  0  0
  -11.0695  -54.8621   -7.2449 C   0  0  0  0  0  0  0  0  0  0  0  0
  -11.6148  -54.9707   -6.0495 N   0  0  0  0  0  0  0  0  0  0  0  0
  1  2  2  0
  2  3  1  0
  2  4  1  0
  4  5  1  0
  5  6  1  0
  6  7  2  0
  7  8  1  0
  8  9  2  0
  9 10  1  0
  6 10  1  0
M  END
$$$$
