
     RDKit          3D

 31 34  0  0  0  0  0  0  0  0999 V2000
    2.4245  -13.3107   88.6357 C   0  0  0  0  0  0  0  0  0  0  0  0
    3.0042  -11.1688   86.4705 C   0  0  0  0  0  0  0  0  0  0  0  0
    1.9327  -11.2658   87.3768 C   0  0  0  0  0  0  0  0  0  0  0  0
    3.6085  -11.1720   88.7305 C   0  0  0  0  0  0  0  0  0  0  0  0
    2.7151  -12.1103   89.3167 C   0  0  0  0  0  0  0  0  0  0  0  0
    3.5229  -12.3409   85.8877 C   0  0  0  0  0  0  0  0  0  0  0  0
    2.9145  -13.5714   86.2397 C   0  0  0  0  0  0  0  0  0  0  0  0
    0.2684  -10.8803   88.8590 N   0  0  0  0  0  0  0  0  0  0  0  0
    1.8383  -13.6800   87.1127 C   0  0  0  0  0  0  0  0  0  0  0  0
    1.3336  -12.5326   87.7415 C   0  0  0  0  0  0  0  0  0  0  0  0
    2.7253  -14.7189   86.8125 F   0  0  0  0  0  0  0  0  0  0  0  0
    3.0234  -13.5489   87.3937 C   0  0  0  0  0  0  0  0  0  0  0  0
    3.8943  -12.6637   86.7891 C   0  0  0  0  0  0  0  0  0  0  0  0
    4.1918  -11.4761   87.4134 C   0  0  0  0  0  0  0  0  0  0  0  0
    0.3105  -12.2702   88.6340 N   0  0  0  0  0  0  0  0  0  0  0  0
    1.2184  -10.2143   88.1632 C   0  0  0  0  0  0  0  0  0  0  0  0
    5.2070  -12.8952   86.2772 C   0  0  0  0  0  0  0  0  0  0  0  0
    4.2286  -12.4217   85.2745 N   0  0  0  0  0  0  0  0  0  0  0  0
    3.7887  -13.5042   84.3479 C   0  0  0  0  0  0  0  0  0  0  0  0
    3.0089  -11.9227   85.9577 C   0  0  0  0  0  0  0  0  0  0  0  0
    5.0275  -10.5315   86.9008 O   0  0  0  0  0  0  0  0  0  0  0  0
    3.0795  -10.3543   87.3062 C   0  0  0  0  0  0  0  0  0  0  0  0
    1.3186  -11.5907   89.1055 C   0  0  0  0  0  0  0  0  0  0  0  0
    1.6201  -11.9374   90.5538 C   0  0  0  0  0  0  0  0  0  0  0  0
    1.2643  -13.1331   91.3949 C   0  0  0  0  0  0  0  0  0  0  0  0
    0.5702  -14.4345   91.0636 C   0  0  0  0  0  0  0  0  0  0  0  0
    1.7442  -12.9606   92.6231 N   0  0  0  0  0  0  0  0  0  0  0  0
    2.3774  -11.6782   92.6657 N   0  0  0  0  0  0  0  0  0  0  0  0
    2.8998  -11.2977   93.9885 C   0  0  0  0  0  0  0  0  0  0  0  0
    2.3442  -11.0337   91.4994 C   0  0  0  0  0  0  0  0  0  0  0  0
    2.9981   -9.6882   91.2382 C   0  0  0  0  0  0  0  0  0  0  0  0
  2  3  1  0
  1  5  2  0
  4  5  1  0
  4  6  1  0
  2  6  2  0
  6  7  1  0
  7  9  2  0
  3 10  1  0
  9 10  1  0
 11 12  1  0
  1 12  1  0
 12 13  2  0
 13 14  1  0
  4 14  2  0
 10 15  2  0
  8 15  1  0
  3 16  2  0
  8 16  1  0
 16 17  1  0
 17 18  1  0
 18 19  1  0
 18 20  1  0
 14 21  1  0
 21 22  1  0
 22 23  1  0
 23 24  1  0
 24 25  1  0
 25 26  1  0
 25 27  2  0
 27 28  1  0
 28 29  1  0
 24 30  2  0
 28 30  1  0
 30 31  1  0
M  END
$$$$
