
     RDKit          3D

 40 42  0  0  0  0  0  0  0  0999 V2000
   90.7521    7.7549   30.0210 C   0  0  1  0  0  0  0  0  0  0  0  0
   90.9285    6.6704   28.9691 C   0  0  1  0  0  0  0  0  0  0  0  0
   92.2232    5.9649   29.1785 C   0  0  2  0  0  0  0  0  0  0  0  0
   93.3790    6.9119   29.0863 C   0  0  1  0  0  0  0  0  0  0  0  0
   93.2110    8.0457   30.0975 C   0  0  1  0  0  0  0  0  0  0  0  0
   94.4304    8.1114   29.4588 C   0  0  0  0  0  0  0  0  0  0  0  0
   94.6037    6.2450   29.4124 O   0  0  0  0  0  0  0  0  0  0  0  0
   90.6749    7.1199   31.2484 O   0  0  0  0  0  0  0  0  0  0  0  0
   91.9055    8.6955   29.9515 O   0  0  0  0  0  0  0  0  0  0  0  0
   93.7072    6.8700   29.2473 N   0  0  0  0  0  0  0  0  0  0  0  0
   97.4454    2.6156   29.8748 C   0  0  2  0  0  0  0  0  0  0  0  0
   98.7090    3.0876   29.2949 N   0  0  0  0  0  0  0  0  0  0  0  0
   96.4475    2.4760   28.7236 C   0  0  0  0  0  0  0  0  0  0  0  0
   95.0702    2.0464   29.2605 C   0  0  2  0  0  0  0  0  0  0  0  0
   94.1156    1.9109   28.1564 N   0  0  0  0  0  0  0  0  0  0  0  0
   94.5533    3.0304   30.3139 C   0  0  1  0  0  0  0  0  0  0  0  0
   95.5674    3.1268   31.4644 C   0  0  2  0  0  0  0  0  0  0  0  0
   95.1811    4.0615   32.4445 O   0  0  0  0  0  0  0  0  0  0  0  0
   96.9539    3.5774   30.9652 C   0  0  2  0  0  0  0  0  0  0  0  0
   95.8098   10.6150   27.7218 O   0  0  0  0  0  0  0  0  0  0  0  0
   95.4702   11.6969   28.5065 C   0  0  2  0  0  0  0  0  0  0  0  0
   96.7252   12.3148   29.0936 C   0  0  2  0  0  0  0  0  0  0  0  0
   97.6334   12.6386   28.0222 O   0  0  0  0  0  0  0  0  0  0  0  0
   97.3864   11.3912   30.0699 C   0  0  1  0  0  0  0  0  0  0  0  0
   98.6151   12.0507   30.6256 N   0  0  0  0  0  0  0  0  0  0  0  0
   96.4282   11.0407   31.1806 C   0  0  2  0  0  0  0  0  0  0  0  0
   97.0410   10.1282   32.1014 O   0  0  0  0  0  0  0  0  0  0  0  0
   95.1781   10.3912   30.5975 C   0  0  1  0  0  0  0  0  0  0  0  0
   94.5302   11.2637   29.5995 O   0  0  0  0  0  0  0  0  0  0  0  0
   95.7734   10.2526   30.1406 C   0  0  0  0  0  0  0  0  0  0  0  0
   96.2419    9.0434   30.6859 O   0  0  0  0  0  0  0  0  0  0  0  0
   89.8374    5.7495   29.0963 O   0  0  0  0  0  0  0  0  0  0  0  0
   92.3378    4.9518   28.1568 O   0  0  0  0  0  0  0  0  0  0  0  0
   97.4709   11.0788   29.2794 N   0  0  0  0  0  0  0  0  0  0  0  0
   96.8396    7.7427   28.0247 C   0  0  0  0  0  0  0  0  0  0  0  0
   96.6114    7.7818   29.1892 O   0  0  0  0  0  0  0  0  0  0  0  0
   96.1749    7.1323   28.0904 C   0  0  2  0  0  0  0  0  0  0  0  0
   96.2457    8.5972   27.5815 C   0  0  0  0  0  0  0  0  0  0  0  0
   96.5873   10.5257   28.2048 C   0  0  0  0  0  0  0  0  0  0  0  0
   96.7659    7.0539   29.3322 O   0  0  0  0  0  0  0  0  0  0  0  0
  1  2  1  0
  2  3  1  0
  3  4  1  0
  4  5  1  0
  5  6  1  6
  4  7  1  1
  1  8  1  1
  5  9  1  0
  1  9  1  0
  6 10  1  0
 11 12  1  6
 11 13  1  0
 13 14  1  0
 14 15  1  6
 14 16  1  0
 16  8  1  1
 16 17  1  0
 17 18  1  1
 11 19  1  0
 17 19  1  0
 19 20  1  1
 21 20  1  6
 21 22  1  0
 22 23  1  6
 22 24  1  0
 24 25  1  1
 24 26  1  0
 26 27  1  1
 26 28  1  0
 21 29  1  0
 28 29  1  0
 28 30  1  1
 30 31  1  0
  2 32  1  1
  3 33  1  6
 12 35  1  0
 35 36  2  0
 35 37  1  0
 37 38  1  0
 38 39  1  0
 34 39  1  0
 37 40  1  1
M  END
$$$$
