
     RDKit          3D

 28 30  0  0  0  0  0  0  0  0999 V2000
    1.2325   -9.6689   27.4946 P   0  0  2  0  0  0  0  0  0  0  0  0
   -0.2672   -9.5367   27.4056 O   0  0  0  0  0  0  0  0  0  0  0  0
    1.6361   -9.5863   28.9578 O   0  0  0  0  0  0  0  0  0  0  0  0
    2.0202   -8.7022   26.6245 O   0  0  0  0  0  0  0  0  0  0  0  0
    1.6987  -11.1634   27.0388 O   0  0  0  0  0  0  0  0  0  0  0  0
    3.5184  -10.5471   25.6044 P   0  0  1  0  0  0  0  0  0  0  0  0
    4.5247  -11.1501   24.6581 O   0  0  0  0  0  0  0  0  0  0  0  0
    4.0155   -9.4324   26.4850 O   0  0  0  0  0  0  0  0  0  0  0  0
    2.9336  -11.7594   26.5149 O   0  0  0  0  0  0  0  0  0  0  0  0
    2.5988  -12.2836   24.2336 C   0  0  0  0  0  0  0  0  0  0  0  0
    3.7148  -11.3379   23.9242 C   0  0  1  0  0  0  0  0  0  0  0  0
    3.2669  -10.2189   23.4132 O   0  0  0  0  0  0  0  0  0  0  0  0
    4.5486  -10.9188   25.2989 C   0  0  1  0  0  0  0  0  0  0  0  0
    5.9519  -10.8349   24.8342 O   0  0  0  0  0  0  0  0  0  0  0  0
    4.0815   -9.8068   25.6199 C   0  0  1  0  0  0  0  0  0  0  0  0
    5.0509   -8.9480   26.3459 O   0  0  0  0  0  0  0  0  0  0  0  0
    3.7920   -9.0574   24.2233 C   0  0  1  0  0  0  0  0  0  0  0  0
    3.2682  -11.3326   22.3038 N   0  0  0  0  0  0  0  0  0  0  0  0
    3.3677  -12.1566   21.2388 C   0  0  0  0  0  0  0  0  0  0  0  0
    4.6557  -12.5055   21.0689 N   0  0  0  0  0  0  0  0  0  0  0  0
    5.3655  -11.9176   22.0155 C   0  0  0  0  0  0  0  0  0  0  0  0
    6.8700  -11.9403   22.3322 C   0  0  0  0  0  0  0  0  0  0  0  0
    7.6613  -12.5605   21.6994 O   0  0  0  0  0  0  0  0  0  0  0  0
    7.3619  -11.1912   23.4311 N   0  0  0  0  0  0  0  0  0  0  0  0
    6.4434  -10.4367   24.2289 C   0  0  0  0  0  0  0  0  0  0  0  0
    6.9526   -9.7038   25.3504 N   0  0  0  0  0  0  0  0  0  0  0  0
    5.0260  -10.4262   23.9393 N   0  0  0  0  0  0  0  0  0  0  0  0
    4.4974  -11.1906   22.7950 C   0  0  0  0  0  0  0  0  0  0  0  0
  1  2  2  0
  1  3  1  1
  1  4  1  0
  1  5  1  0
  5  6  1  0
  6  7  2  0
  6  8  1  1
  6  9  1  0
  9 10  1  0
 11 10  1  1
 11 12  1  0
 11 13  1  0
 13 14  1  6
 13 15  1  0
 15 16  1  1
 12 17  1  0
 15 17  1  0
 17 18  1  1
 18 19  1  0
 19 20  2  0
 20 21  1  0
 21 22  1  0
 22 23  2  0
 22 24  1  0
 24 25  1  0
 25 26  1  0
 25 27  2  0
 18 28  1  0
 21 28  2  0
 27 28  1  0
M  END
$$$$
