
     RDKit          3D

 21 22  0  0  0  0  0  0  0  0999 V2000
   -7.7577   30.4344   19.3678 C   0  0  0  0  0  0  0  0  0  0  0  0
   -6.9709   31.4904   19.0936 N   0  0  0  0  0  0  0  0  0  0  0  0
   -7.5066   32.4898   18.3565 C   0  0  0  0  0  0  0  0  0  0  0  0
   -6.7404   33.5453   18.0754 N   0  0  0  0  0  0  0  0  0  0  0  0
   -8.7587   32.4867   17.8712 N   0  0  0  0  0  0  0  0  0  0  0  0
   -9.5471   31.4373   18.1849 C   0  0  0  0  0  0  0  0  0  0  0  0
  -10.8121   31.4803   17.7149 N   0  0  0  0  0  0  0  0  0  0  0  0
   -9.0757   30.3310   18.9489 C   0  0  0  0  0  0  0  0  0  0  0  0
   -9.9882   29.1644   19.3419 C   0  0  0  0  0  0  0  0  0  0  0  0
   -8.8219   26.0236   18.9520 C   0  0  0  0  0  0  0  0  0  0  0  0
   -8.9950   26.5860   17.6890 C   0  0  0  0  0  0  0  0  0  0  0  0
   -8.2958   26.1031   16.5855 C   0  0  0  0  0  0  0  0  0  0  0  0
  -10.1374   28.3565   16.7203 O   0  0  0  0  0  0  0  0  0  0  0  0
   -9.9650   29.1395   17.9010 C   0  0  0  0  0  0  0  0  0  0  0  0
   -7.3849   25.0534   16.7347 C   0  0  0  0  0  0  0  0  0  0  0  0
   -5.1429   23.6747   18.9164 O   0  0  0  0  0  0  0  0  0  0  0  0
   -3.7785   23.8367   18.5650 C   0  0  0  0  0  0  0  0  0  0  0  0
   -7.1666   24.5364   18.0110 C   0  0  0  0  0  0  0  0  0  0  0  0
   -7.4099   23.4222   17.1057 O   0  0  0  0  0  0  0  0  0  0  0  0
   -6.9914   22.0764   17.3252 C   0  0  0  0  0  0  0  0  0  0  0  0
   -7.8758   25.0194   19.1065 C   0  0  0  0  0  0  0  0  0  0  0  0
  1  2  2  0
  2  3  1  0
  3  4  1  0
  3  5  2  0
  5  6  1  0
  6  7  1  0
  1  8  1  0
  6  8  2  0
  8  9  1  0
  9 10  1  0
 10 11  2  0
 11 12  1  0
 12 13  1  0
 13 14  1  0
 12 15  2  0
 15 16  1  0
 16 17  1  0
 15 18  1  0
 18 19  1  0
 19 20  1  0
 10 21  1  0
 18 21  2  0
M  END
$$$$
