
     RDKit          3D

 25 26  0  0  0  0  0  0  0  0999 V2000
   81.5413    7.4504   64.1754 N   0  0  0  0  0  0  0  0  0  0  0  0
   82.2400    6.5711   66.5193 C   0  0  0  0  0  0  0  0  0  0  0  0
   81.0179    5.9603   67.1573 C   0  0  0  0  0  0  0  0  0  0  0  0
   80.2401    6.7351   68.0071 C   0  0  0  0  0  0  0  0  0  0  0  0
   79.1254    6.1753   68.5879 C   0  0  0  0  0  0  0  0  0  0  0  0
   78.5223    8.9088   63.0837 N   0  0  0  0  0  0  0  0  0  0  0  0
   79.5923    8.3702   63.3128 O   0  0  0  0  0  0  0  0  0  0  0  0
   78.3705   10.1229   63.0478 O   0  0  0  0  0  0  0  0  0  0  0  0
   78.7392    4.8690   68.3626 C   0  0  0  0  0  0  0  0  0  0  0  0
   79.5129    4.1070   67.5074 C   0  0  0  0  0  0  0  0  0  0  0  0
   80.6434    4.6477   66.9142 C   0  0  0  0  0  0  0  0  0  0  0  0
   80.9026    6.2968   64.3726 C   0  0  0  0  0  0  0  0  0  0  0  0
   81.4085    5.2138   64.0912 O   0  0  0  0  0  0  0  0  0  0  0  0
   79.8109    6.2170   63.9990 C   0  0  0  0  0  0  0  0  0  0  0  0
   79.3508    5.0173   63.4529 C   0  0  0  0  0  0  0  0  0  0  0  0
   79.8985    4.5010   62.2950 C   0  0  0  0  0  0  0  0  0  0  0  0
   80.9143    5.1914   61.6993 C   0  0  0  0  0  0  0  0  0  0  0  0
   81.4575    4.6896   60.5634 F   0  0  0  0  0  0  0  0  0  0  0  0
   81.4035    6.3831   62.1768 C   0  0  0  0  0  0  0  0  0  0  0  0
   80.8260    6.8999   63.3221 C   0  0  0  0  0  0  0  0  0  0  0  0
   81.1730    8.1337   63.8166 O   0  0  0  0  0  0  0  0  0  0  0  0
   81.2214    6.7003   64.6251 C   0  0  0  0  0  0  0  0  0  0  0  0
   79.8696    7.2521   64.9986 C   0  0  0  0  0  0  0  0  0  0  0  0
   78.8689    6.5575   64.5409 O   0  0  0  0  0  0  0  0  0  0  0  0
   79.7586    8.2075   65.7584 O   0  0  0  0  0  0  0  0  0  0  0  0
  1  2  1  0
  2  3  1  0
  3  4  2  0
  4  5  1  0
  5  6  1  0
  6  7  2  0
  6  8  1  0
  5  9  2  0
  9 10  1  0
 10 11  2  0
  3 11  1  0
  1 12  1  0
 12 13  2  0
 12 14  1  0
 14 15  1  0
 15 16  2  0
 16 17  1  0
 17 18  1  0
 17 19  2  0
 14 20  2  0
 19 20  1  0
 20 21  1  0
 21 22  1  0
 22 23  1  0
 23 24  2  0
 23 25  1  0
M  CHG  2   6   1   8  -1
M  END
$$$$
